                                  MODFLOW-NWT-SWR1 
      U.S. GEOLOGICAL SURVEY MODULAR FINITE-DIFFERENCE GROUNDWATER-FLOW MODEL
                            VERSION 1.1.3, 8/01/2017
                    BASED ON MODFLOW-2005 VERSION 1.11.00 08/08/2013

 LIST FILE: SFR2_GMS.out  
                         UNIT  702

 OPENING "SFR2_GMS.hed"
 FILE TYPE:DATA(BINARY)   UNIT  730   STATUS:UNKNOWN
 FORMAT:BINARY                 ACCESS:SEQUENTIAL          

 OPENING "SFR2_GMS.ccf"
 FILE TYPE:DATA(BINARY)   UNIT  740   STATUS:UNKNOWN
 FORMAT:BINARY                 ACCESS:SEQUENTIAL          

 OPENING "SFR2_GMS.ccf2"
 FILE TYPE:DATA(BINARY)   UNIT  741   STATUS:UNKNOWN
 FORMAT:BINARY                 ACCESS:SEQUENTIAL          

 OPENING "SFR2_GMS_stream_gage_1.gag"
 FILE TYPE:DATA   UNIT   83   STATUS:UNKNOWN
 FORMAT:FORMATTED              ACCESS:SEQUENTIAL          

 OPENING "SFR2_GMS_stream_gage_2.gag"
 FILE TYPE:DATA   UNIT   84   STATUS:UNKNOWN
 FORMAT:FORMATTED              ACCESS:SEQUENTIAL          

 OPENING "SFR2_GMS_stream_gage_3.gag"
 FILE TYPE:DATA   UNIT   85   STATUS:UNKNOWN
 FORMAT:FORMATTED              ACCESS:SEQUENTIAL          

 OPENING "SFR2_GMS_stream_gage_4.gag"
 FILE TYPE:DATA   UNIT   86   STATUS:UNKNOWN
 FORMAT:FORMATTED              ACCESS:SEQUENTIAL          

 OPENING "SFR2_GMS_stream_gage_5.gag"
 FILE TYPE:DATA   UNIT   87   STATUS:UNKNOWN
 FORMAT:FORMATTED              ACCESS:SEQUENTIAL          

 OPENING "SFR2_GMS_stream_gage_6.gag"
 FILE TYPE:DATA   UNIT   88   STATUS:UNKNOWN
 FORMAT:FORMATTED              ACCESS:SEQUENTIAL          

 OPENING "SFR2_GMS_stream_gage_7.gag"
 FILE TYPE:DATA   UNIT   89   STATUS:UNKNOWN
 FORMAT:FORMATTED              ACCESS:SEQUENTIAL          

 OPENING "SFR2_GMS_stream_gage_8.gag"
 FILE TYPE:DATA   UNIT   90   STATUS:UNKNOWN
 FORMAT:FORMATTED              ACCESS:SEQUENTIAL          

 OPENING "SFR2_GMS_stream_gage_9.gag"
 FILE TYPE:DATA   UNIT   91   STATUS:UNKNOWN
 FORMAT:FORMATTED              ACCESS:SEQUENTIAL          
#                                                                                                                                                                                                                                                                                                           
# Global Input Files                                                                                                                                                                                                                                                                                        

 OPENING "SFR2_GMS.dis"
 FILE TYPE:DIS   UNIT  719   STATUS:OLD    
 FORMAT:FORMATTED              ACCESS:SEQUENTIAL          
#                                                                                                                                                                                                                                                                                                           
# Flow Process Input Files                                                                                                                                                                                                                                                                                  

 OPENING "SFR2_GMS.ba6"
 FILE TYPE:BAS6   UNIT  703   STATUS:OLD    
 FORMAT:FORMATTED              ACCESS:SEQUENTIAL          

 OPENING "SFR2_GMS.upw"
 FILE TYPE:UPW   UNIT    1   STATUS:OLD    
 FORMAT:FORMATTED              ACCESS:SEQUENTIAL          

 OPENING "SFR2_GMS.oc"
 FILE TYPE:OC   UNIT  715   STATUS:OLD    
 FORMAT:FORMATTED              ACCESS:SEQUENTIAL          

 OPENING "SFR2_GMS.rch"
 FILE TYPE:RCH   UNIT  716   STATUS:OLD    
 FORMAT:FORMATTED              ACCESS:SEQUENTIAL          

 OPENING "SFR2_GMS.wel"
 FILE TYPE:WEL   UNIT  709   STATUS:OLD    
 FORMAT:FORMATTED              ACCESS:SEQUENTIAL          

 OPENING "SFR2_GMS.ghb"
 FILE TYPE:GHB   UNIT  711   STATUS:OLD    
 FORMAT:FORMATTED              ACCESS:SEQUENTIAL          

 OPENING "SFR2_GMS.evt"
 FILE TYPE:EVT   UNIT  712   STATUS:OLD    
 FORMAT:FORMATTED              ACCESS:SEQUENTIAL          

 OPENING "SFR2_GMS.sfr2"
 FILE TYPE:SFR   UNIT  724   STATUS:OLD    
 FORMAT:FORMATTED              ACCESS:SEQUENTIAL          

 OPENING "SFR2_GMS.gag"
 FILE TYPE:GAGE   UNIT  723   STATUS:OLD    
 FORMAT:FORMATTED              ACCESS:SEQUENTIAL          

 OPENING "SFR2_GMS.nwt"
 FILE TYPE:NWT   UNIT    2   STATUS:OLD    
 FORMAT:FORMATTED              ACCESS:SEQUENTIAL          

 BAS -- BASIC PACKAGE, VERSION 1.1.3, 8/01/2017 INPUT READ FROM UNIT  703
 
 MODFLOW was compiled using mixed precision
 Precision of REAL variables:           6
 Precision of DOUBLE PRECISION variables:          15

 DISCRETIZATION INPUT DATA READ FROM UNIT  719
 # MF2K DISCRETIZATION FILE
 #
 #
 # NLAY NROW NCOL NPER TIMEUNITS LENUNITS
    1 LAYERS        15 ROWS        10 COLUMNS
    2 STRESS PERIOD(S) IN SIMULATION
 MODEL TIME UNIT IS SECONDS
 MODEL LENGTH UNIT IS FEET
  Confining bed flag for each layer:
   0



                               DELR
 READING ON UNIT  719 WITH FORMAT: (FREE)              



                               DELC
 READING ON UNIT  719 WITH FORMAT: (FREE)              


 STRESS PERIOD     LENGTH       TIME STEPS     MULTIPLIER FOR DELT    SS FLAG
 ----------------------------------------------------------------------------
        1        1.5778801E+09     50                    1.100         TR
        2        1.5778801E+09     50                    1.100         TR

 TRANSIENT SIMULATION



 
 #TestProblem 1                                                                  
 #Transient Simulation For SFR Package                                           
 THE FREE FORMAT OPTION HAS BEEN SELECTED



                     BOUNDARY ARRAY FOR LAYER   1
 READING DATA FROM HDF5 FILE

 AQUIFER HEAD WILL BE SET TO   6999.0     AT ALL NO-FLOW NODES (IBOUND=0).

 OUTPUT CONTROL IS SPECIFIED ONLY AT TIME STEPS FOR WHICH OUTPUT IS DESIRED
 COMPACT CELL-BY-CELL BUDGET FILES WILL BE WRITTEN
 AUXILIARY DATA WILL BE SAVED IN CELL-BY-CELL BUDGET FILES
 HEAD PRINT FORMAT CODE IS   0    DRAWDOWN PRINT FORMAT CODE IS   0
 HEADS WILL BE SAVED ON UNIT  730    DRAWDOWNS WILL BE SAVED ON UNIT    0

 NWT1 -- Newton Solver, VERSION 1.1.3, 8/01/2017
         INPUT READ FROM UNIT  2

 SIMPLE OPTION:
 DEFAULT SOLVER INPUT VALUES REFLECT NEARLY LINEAR MODEL
 ***GMRES linear solver will be used***
 
   CONVERGENCE CRITERION OF   0.100000E-03 FOR HEAD SOLUTION
   AND A TOLERANCE OF   0.500000E+03 FOR FLOW SOLUTION AND 
   A MAXIMUM OF   400 OUTER ITERATIONS. 


   D-B-D REDUCTION FACTOR OF    0.970000E+00 AND 
   A D-B-D INCREASE FACTOR OF    0.100000E-03 AND 
   A D-B-D RELAXATION OF    0.000000E+00 AND 
   A MOMENTUM FACTOR OF    0.000000E+00 .


 ***BACKTRACKING IS INACTIVE***
 GMRES -- LINEAR SOLUTION BY GMRES PACKAGE 
     adapted for HYDROTHERM by Kipp and others (2008)
     using software originally developed by Saad (1990)  2
     using algorithms described in Saad (2003)

 UPW1 -- UPSTREAM WEIGHTING FLOW PACKAGE, VERSION 1.1.3, 8/01/2017
         INPUT READ FROM UNIT  1

 CELL-BY-CELL FLOWS WILL BE SAVED ON UNIT  740
 No named parameters

   LAYER FLAGS:
 LAYER       LAYTYP          LAYAVG    CHANI           LAYVKA           LAYWET
 ---------------------------------------------------------------------------
    1             1             0    -1.000E+00             1             0

   INTERPRETATION OF LAYER FLAGS:
                        INTERBLOCK     HORIZONTAL    DATA IN
         LAYER TYPE   TRANSMISSIVITY   ANISOTROPY   ARRAY VKA   WETTABILITY
 LAYER   (LAYTYP)        (LAYAVG)      (CHANI)     (LAYVKA)       (LAYWET)
 ---------------------------------------------------------------------------
    1   CONVERTIBLE      HARMONIC      VARIABLE    ANISOTROPY  NON-WETTABLE

 WEL -- WELL PACKAGE FOR NWT VERSION 1.1.3,  8/01/2017 INPUT READ FROM UNIT  709
 #GMS_HDF5_01
 No named parameters
 MAXIMUM OF     10 ACTIVE WELLS AT ONE TIME
 CELL-BY-CELL FLOWS WILL BE SAVED ON UNIT  740
 AUXILIARY WELL VARIABLE: IFACE           
 AUXILIARY WELL VARIABLE: QFACT           
 AUXILIARY WELL VARIABLE: CELLGRP         
 No named parameters
  PHIRAMP WILL BE SET TO A DEFAULT VALUE OF 1.0E-5
  WELLS WITH REDUCED PUMPING WILL BE REPORTED TO THE MAIN LISTING FILE


     0 Well parameters

 EVT -- EVAPOTRANSPIRATION PACKAGE, VERSION 7, 5/2/2005
         INPUT READ FROM UNIT  712
 #GMS_HDF5_01
 No named parameters
 OPTION 1 -- EVAPOTRANSPIRATION FROM TOP LAYER
 CELL-BY-CELL FLOWS WILL BE SAVED ON UNIT  740


     0 Evapotranspiration parameters

 GHB -- GENERAL-HEAD BOUNDARY PACKAGE, VERSION 7, 5/2/2005
         INPUT READ FROM UNIT  711
 #GMS_HDF5_01
 No named parameters
 MAXIMUM OF      2 ACTIVE GHB CELLS AT ONE TIME
 CELL-BY-CELL FLOWS WILL BE SAVED ON UNIT  740
 AUXILIARY GHB VARIABLE: IFACE           
 AUXILIARY GHB VARIABLE: CONDFACT        
 AUXILIARY GHB VARIABLE: CELLGRP         


     0 GHB parameters

 RCH -- RECHARGE PACKAGE, VERSION 7, 5/2/2005 INPUT READ FROM UNIT  716
 #GMS_HDF5_01
 No named parameters
 OPTION 3 -- RECHARGE TO HIGHEST ACTIVE NODE IN EACH VERTICAL COLUMN
 CELL-BY-CELL FLOWS WILL BE SAVED ON UNIT  740


     0 Recharge parameters

 SFR7 -- STREAMFLOW ROUTING PACKAGE, VERSION 1.0.5, 2012-04-05
         INPUT READ FROM UNIT 724
 #GMS_HDF5_01
 No named parameters


 NUMBER OF STREAM REACHES IS   50

 NUMBER OF STREAM SEGMENTS IS    8

 NUMBER OF STREAM PARAMETERS IS    0

 NUMBER OF STREAM SEGMENTS DEFINED USING PARAMETERS IS              0

 MAXIMUM ERROR FOR STREAM LEAKAGE RATES IS  1.00E-04

 CONSTANT FOR MANNINGS EQUATION IS  1.4860E+00



 FLOW TO AND FROM GROUND WATER FOR EACH STREAM REACH WILL BE SAVED ON UNIT  740


   STREAM NETWORK DESCRIPTION: 

   LAYER    ROW    COL   SEGMENT   REACH     LENGTH
                          NUMBER   NUMBER    IN CELL        
   --------------------------------------------------
      1      1      1       1        1    5.6683E+03
      1      1      2       1        2    4.6265E+02
      1      2      2       1        3    6.8632E+03
      1      2      3       1        4    3.2576E+02
      1      3      3       1        5    5.8050E+03
      1      3      4       1        6    4.9981E+03
      1      3      4       2        1    2.7627E+02
      1      3      5       2        2    5.6686E+02
      1      4      5       2        3    6.3470E+03
      1      4      6       2        4    1.3000E+03
      1      5      6       2        5    5.3010E+03
      1      6      6       2        6    5.0160E+03
      1      7      6       2        7    5.0102E+03
      1      8      6       2        8    5.0102E+03
      1      9      6       2        9    1.4400E+02
      1      3      4       3        1    2.2054E+02
      1      3      5       3        2    5.0122E+03
      1      3      6       3        3    5.0106E+03
      1      3      7       3        4    5.0228E+03
      1      4      7       3        5    1.3723E+02
      1      4      8       3        6    5.2226E+03
      1      5      8       3        7    5.0049E+03
      1      6      8       3        8    2.9004E+03
      1     14      9       4        1    5.4001E+03
      1     13      9       4        2    4.0361E+02
      1     13      8       4        3    5.6700E+03
      1     13      7       4        4    4.3518E+03
      1      5     10       5        1    4.9706E+03
      1      5      9       5        2    5.4183E+03
      1      5      8       5        3    9.3123E+02
      1      6      8       5        4    4.4923E+03
      1      6      8       6        1    1.5816E+03
      1      6      7       6        2    8.6881E+02
      1      7      7       6        3    5.5770E+03
      1      8      7       6        4    3.2065E+03
      1      8      6       6        5    3.1746E+03
      1      9      6       6        6    1.6771E+02
      1      9      6       7        1    5.0547E+03
      1     10      6       7        2    1.0537E+03
      1     10      7       7        3    4.4336E+03
      1     11      7       7        4    5.1137E+03
      1     12      7       7        5    5.0196E+03
      1     13      7       7        6    2.0472E+03
      1     13      7       8        1    6.9662E+02
      1     13      6       8        2    5.0480E+03
      1     13      5       8        3    5.0433E+03
      1     13      4       8        4    5.0094E+03
      1     13      3       8        5    5.0033E+03
      1     13      2       8        6    5.1826E+03
      1     13      1       8        7    5.2147E+03






   9 GAGING STATIONS WERE SPECIFIED.
     (Lakes are identified by a negative value of the Lake Number)
     RECORDS WILL BE WRITTEN TO SEPARATE OUTPUT FILES REPRESENTED BY FOLLOWING UNIT NUMBERS:

 Stream Gages:
  GAGE #   SEGMENT   REACH   UNIT   OUTTYPE
       1       1       4      83       4
       2       2       3      84       1
       3       3       5      85       1
       4       4       3      86       1
       5       5       4      87       4
       6       6       5      88       1
       7       7       3      89       4
       8       8       6      90       4
       9       3       1      91       5




1
                            STRESS PERIOD NO.    1, LENGTH =  0.1577880E+10
                            -----------------------------------------------

                              NUMBER OF TIME STEPS =    50

                               MULTIPLIER FOR DELT =     1.100

                            INITIAL TIME STEP SIZE =   1355672.    

 WELL NO.  LAYER   ROW   COL   STRESS RATE         IFACE           QFACT           CELLGRP         
 --------------------------------------------------------------------------------------------------
      1      1      6      4      -10.00           0.000           0.000          -1.000    
      2      1      6      5      -10.00           0.000           0.000          -1.000    
      3      1      7      4      -10.00           0.000           0.000          -1.000    
      4      1      7      5      -10.00           0.000           0.000          -1.000    
      5      1      8      4      -10.00           0.000           0.000          -1.000    
      6      1      8      5      -10.00           0.000           0.000          -1.000    
      7      1      9      4      -10.00           0.000           0.000          -1.000    
      8      1      9      5      -10.00           0.000           0.000          -1.000    
      9      1     10      4      -10.00           0.000           0.000          -1.000    
     10      1     10      5      -10.00           0.000           0.000          -1.000    

     10 WELLS

 BOUND. NO. LAYER   ROW   COL     STAGE      CONDUCTANCE         IFACE           CONDFACT        CELLGRP         
 ----------------------------------------------------------------------------------------------------------------
      1      1     13      1       988.0          0.3800E-01       0.000           0.000          -1.000    
      2      1     14      9       1045.          0.3800E-01       0.000           0.000          -1.000    

      2 GHB CELLS



 CLASSIFICATION & COUNT OF STREAM SEGMENTS BASED ON SOURCE OF INFLOW:

                HEADWATER     DIVERSION     RECEIVES TRIBUTARY FLOW
                ---------     ---------     -----------------------
                     3              1               4



                    INPUT DATA FOR EACH STREAM SEGMENT
 ---------------------------------------------------------------------------------------------

 SEGMENT    SEG.     INFLOW   OVERLAND   STREAM    STREAM   ICALC  OUTFLOW  DIVERSION PRIORITY
    NO.    LENGTH     RATE     RUNOFF      ET       PPT.    METH.  TO SEG.  FROM SEG.    NO.

      1  2.412E+04 2.500E+01 0.000E+00 0.000E+00 0.000E+00    4        2        0        0
      2  2.897E+04 0.000E+00 0.000E+00 0.000E+00 0.000E+00    1        7        0        0
      3  2.853E+04 1.000E+01 0.000E+00 0.000E+00 0.000E+00    0        6        1        0
      4  1.583E+04 1.500E+02 0.000E+00 0.000E+00 0.000E+00    2        8        0        0
      5  1.581E+04 1.000E+01 0.000E+00 0.000E+00 0.000E+00    1        6        0        0
      6  1.458E+04 0.000E+00 0.000E+00 0.000E+00 0.000E+00    3        7        0        0
      7  2.272E+04 0.000E+00 0.000E+00 0.000E+00 0.000E+00    1        8        0        0
      8  3.120E+04 0.000E+00 0.000E+00 0.000E+00 0.000E+00    2        0        0        0


         STREAMBED PROPERTIES AND STREAM DIMENSIONS

 SEGMENT     BED HYD. COND.      BED THICKNESS     ELEV.-TOP OF BED     WIDTH OF STREAM     DEPTH OF STREAM    STREAM ROUGHNESS
    No.     UPPER     LOWER     UPPER     LOWER     UPPER     LOWER     UPPER     LOWER     UPPER     LOWER   CHANNEL      BANK

     1  3.000E-05 3.000E-05 3.000E+00 3.000E+00 1.095E+03 1.075E+03
     2  3.000E-05 3.000E-05 3.000E+00 3.000E+00 1.075E+03 1.050E+03 1.200E+01 1.200E+01                     3.000E-02
     3  3.000E-05 3.000E-05 2.000E+00 2.000E+00 1.075E+03 1.060E+03 1.000E+01 6.000E+00 2.000E+00 1.000E+00
     4  6.000E-05 6.000E-05 3.000E+00 3.000E+00 1.040E+03 1.025E+03                                         2.500E-02 4.500E-02
     5  3.000E-05 3.000E-05 3.000E+00 3.000E+00 1.080E+03 1.060E+03 1.000E+01 1.000E+01                     3.000E-02
     6  3.000E-05 3.000E-05 3.000E+00 3.000E+00 1.060E+03 1.045E+03
     7  3.000E-05 3.000E-05 3.000E+00 3.000E+00 1.045E+03 1.025E+03 1.200E+01 1.200E+01                     3.000E-02
     8  6.000E-05 6.000E-05 3.000E+00 3.000E+00 1.025E+03 9.900E+02                                         2.500E-02 4.500E-02

  EIGHT POINT CROSS-SECTION DATA FOR SEGMENTS WITH ICALC = 2
    X VALUES X VALUES START FROM LEFT SIDE LOOKING DOWNSTREAM

     SEGMENT NO.        X1        X2        X3        X4        X5        X6        X7        X8
            4      0.000E+00 1.000E+01 8.000E+01 1.000E+02 1.500E+02 1.700E+02 2.400E+02 2.500E+02
            8      0.000E+00 1.000E+01 8.000E+01 1.000E+02 1.500E+02 1.700E+02 2.400E+02 2.500E+02

    Z VALUES ARE RELATIVE TO STREAMBED ELEVATION

     SEGMENT NO.          Z1        Z2        Z3        Z4        Z5        Z6        Z7        Z8
            4      2.000E+01 1.300E+01 1.000E+01 2.000E+00 0.000E+00 1.000E+01 1.300E+01 2.000E+01
            8      2.500E+01 1.700E+01 1.300E+01 4.000E+00 0.000E+00 1.000E+01 1.600E+01 2.000E+01

 STREAMFLOW RELATION WITH DEPTH IS BASED ON EQUATION Q = CDPTH*(DEPTH)**FDPTH
 STREAMFLOW RELATION WITH WIDTH IS BASED ON EQUATION Q = AWDTH*(WIDTH)**BWDTH

 SEGMENT NO.      CDPTH     FDPTH    AWDTH     BWDTH

          6 3.000E-01 3.500E-01 3.800E+00 6.000E-01

 STREAMFLOW RELATION WITH DEPTH AND WIDTH IS BASED ON TABULATED VALUES

  SEGMENT NO.   STREAMFLOW       DEPTH       WIDTH

          1     5.0000E-01   2.5000E-01   2.5000E-01
          1     1.0000E+00   4.0000E-01   4.0000E-01
          1     2.0000E+00   5.5000E-01   5.5000E-01
          1     4.0000E+00   7.0000E-01   7.0000E-01
          1     7.0000E+00   8.0000E-01   8.0000E-01
          1     1.0000E+01   9.0000E-01   9.0000E-01
          1     2.0000E+01   1.1000E+00   1.1000E+00
          1     3.0000E+01   1.2500E+00   1.2500E+00
          1     5.0000E+01   1.4000E+00   1.4000E+00
          1     7.5000E+01   1.7000E+00   1.7000E+00
          1     1.0000E+02   2.6000E+00   2.6000E+00



 
 SOLVING FOR HEAD 

    ------------------------------------------------
       NWT REQUIRED            5 OUTER ITERATIONS 
       AND A TOTAL OF          7 INNER ITERATIONS.
    ------------------------------------------------

 OUTPUT CONTROL FOR STRESS PERIOD    1   TIME STEP    1
    PRINT BUDGET
    SAVE HEAD FOR ALL LAYERS
    SAVE BUDGET
 UBDSV1 SAVING "         STORAGE" ON UNIT 740 AT TIME STEP     1, STRESS PERIOD   1
 UBDSV2 SAVING "   CONSTANT HEAD" ON UNIT 740 AT TIME STEP     1, STRESS PERIOD   1
 UBDSV1 SAVING "FLOW RIGHT FACE " ON UNIT 740 AT TIME STEP     1, STRESS PERIOD   1
 UBDSV1 SAVING "FLOW FRONT FACE " ON UNIT 740 AT TIME STEP     1, STRESS PERIOD   1
 UBDSV4 SAVING "           WELLS" ON UNIT 740 AT TIME STEP     1, STRESS PERIOD   1
 UBDSV3 SAVING "              ET" ON UNIT 740 AT TIME STEP     1, STRESS PERIOD   1
 UBDSV4 SAVING " HEAD DEP BOUNDS" ON UNIT 740 AT TIME STEP     1, STRESS PERIOD   1
 UBDSV3 SAVING "        RECHARGE" ON UNIT 740 AT TIME STEP     1, STRESS PERIOD   1
 UBDSV4 SAVING "  STREAM LEAKAGE" ON UNIT 740 AT TIME STEP     1, STRESS PERIOD   1
 UBDSV2 SAVING "STREAMFLOW OUT  " ON UNIT 741 AT TIME STEP     1, STRESS PERIOD   1




 HEAD WILL BE SAVED ON UNIT  730 AT END OF TIME STEP    1, STRESS PERIOD    1
1
  VOLUMETRIC BUDGET FOR ENTIRE MODEL AT END OF TIME STEP    1, STRESS PERIOD   1
  ------------------------------------------------------------------------------

     CUMULATIVE VOLUMES      L**3       RATES FOR THIS TIME STEP      L**3/T
     ------------------                 ------------------------

           IN:                                      IN:
           ---                                      ---
             STORAGE =   142443344.0000               STORAGE =         105.0721
       CONSTANT HEAD =           0.0000         CONSTANT HEAD =           0.0000
               WELLS =           0.0000                 WELLS =           0.0000
                  ET =           0.0000                    ET =           0.0000
     HEAD DEP BOUNDS =      296059.7500       HEAD DEP BOUNDS =           0.2184
            RECHARGE =     2431737.2500              RECHARGE =           1.7937
      STREAM LEAKAGE =    63190192.0000        STREAM LEAKAGE =          46.6117

            TOTAL IN =   208361344.0000              TOTAL IN =         153.6959

          OUT:                                     OUT:
          ----                                     ----
             STORAGE =    21845572.0000               STORAGE =          16.1142
       CONSTANT HEAD =           0.0000         CONSTANT HEAD =           0.0000
               WELLS =   135567232.0000                 WELLS =         100.0000
                  ET =    45456556.0000                    ET =          33.5306
     HEAD DEP BOUNDS =      371237.1250       HEAD DEP BOUNDS =           0.2738
            RECHARGE =           0.0000              RECHARGE =           0.0000
      STREAM LEAKAGE =     5120774.5000        STREAM LEAKAGE =           3.7773

           TOTAL OUT =   208361360.0000             TOTAL OUT =         153.6960

            IN - OUT =         -16.0000              IN - OUT =      -3.0518E-05

 PERCENT DISCREPANCY =          -0.00     PERCENT DISCREPANCY =          -0.00






         TIME SUMMARY AT END OF TIME STEP    1 IN STRESS PERIOD    1
                    SECONDS     MINUTES      HOURS       DAYS        YEARS
                    -----------------------------------------------------------
   TIME STEP LENGTH 1.35567E+06  22595.      376.58      15.691     4.29587E-02
 STRESS PERIOD TIME 1.35567E+06  22595.      376.58      15.691     4.29587E-02
         TOTAL TIME 1.35567E+06  22595.      376.58      15.691     4.29587E-02
1
 
 SOLVING FOR HEAD 

    ------------------------------------------------
       NWT REQUIRED            4 OUTER ITERATIONS 
       AND A TOTAL OF          5 INNER ITERATIONS.
    ------------------------------------------------

 OUTPUT CONTROL FOR STRESS PERIOD    1   TIME STEP    2
    PRINT BUDGET
    SAVE HEAD FOR ALL LAYERS
    SAVE BUDGET
 UBDSV1 SAVING "         STORAGE" ON UNIT 740 AT TIME STEP     2, STRESS PERIOD   1
 UBDSV2 SAVING "   CONSTANT HEAD" ON UNIT 740 AT TIME STEP     2, STRESS PERIOD   1
 UBDSV1 SAVING "FLOW RIGHT FACE " ON UNIT 740 AT TIME STEP     2, STRESS PERIOD   1
 UBDSV1 SAVING "FLOW FRONT FACE " ON UNIT 740 AT TIME STEP     2, STRESS PERIOD   1
 UBDSV4 SAVING "           WELLS" ON UNIT 740 AT TIME STEP     2, STRESS PERIOD   1
 UBDSV3 SAVING "              ET" ON UNIT 740 AT TIME STEP     2, STRESS PERIOD   1
 UBDSV4 SAVING " HEAD DEP BOUNDS" ON UNIT 740 AT TIME STEP     2, STRESS PERIOD   1
 UBDSV3 SAVING "        RECHARGE" ON UNIT 740 AT TIME STEP     2, STRESS PERIOD   1
 UBDSV4 SAVING "  STREAM LEAKAGE" ON UNIT 740 AT TIME STEP     2, STRESS PERIOD   1
 UBDSV2 SAVING "STREAMFLOW OUT  " ON UNIT 741 AT TIME STEP     2, STRESS PERIOD   1




 HEAD WILL BE SAVED ON UNIT  730 AT END OF TIME STEP    2, STRESS PERIOD    1
1
  VOLUMETRIC BUDGET FOR ENTIRE MODEL AT END OF TIME STEP    2, STRESS PERIOD   1
  ------------------------------------------------------------------------------

     CUMULATIVE VOLUMES      L**3       RATES FOR THIS TIME STEP      L**3/T
     ------------------                 ------------------------

           IN:                                      IN:
           ---                                      ---
             STORAGE =   290470176.0000               STORAGE =          99.2643
       CONSTANT HEAD =           0.0000         CONSTANT HEAD =           0.0000
               WELLS =           0.0000                 WELLS =           0.0000
                  ET =           0.0000                    ET =           0.0000
     HEAD DEP BOUNDS =      622536.5000       HEAD DEP BOUNDS =           0.2189
            RECHARGE =     5106648.0000              RECHARGE =           1.7937
      STREAM LEAKAGE =   131250592.0000        STREAM LEAKAGE =          45.6401

            TOTAL IN =   427449952.0000              TOTAL IN =         146.9171

          OUT:                                     OUT:
          ----                                     ----
             STORAGE =    34280868.0000               STORAGE =           8.3389
       CONSTANT HEAD =           0.0000         CONSTANT HEAD =           0.0000
               WELLS =   284691200.0000                 WELLS =         100.0000
                  ET =    94105968.0000                    ET =          32.6235
     HEAD DEP BOUNDS =      798946.5625       HEAD DEP BOUNDS =           0.2868
            RECHARGE =           0.0000              RECHARGE =           0.0000
      STREAM LEAKAGE =    13573112.0000        STREAM LEAKAGE =           5.6680

           TOTAL OUT =   427450080.0000             TOTAL OUT =         146.9172

            IN - OUT =        -128.0000              IN - OUT =      -7.6294E-05

 PERCENT DISCREPANCY =          -0.00     PERCENT DISCREPANCY =          -0.00






         TIME SUMMARY AT END OF TIME STEP    2 IN STRESS PERIOD    1
                    SECONDS     MINUTES      HOURS       DAYS        YEARS
                    -----------------------------------------------------------
   TIME STEP LENGTH 1.49124E+06  24854.      414.23      17.260     4.72545E-02
 STRESS PERIOD TIME 2.84691E+06  47449.      790.81      32.950     9.02132E-02
         TOTAL TIME 2.84691E+06  47449.      790.81      32.950     9.02132E-02
1
 
 SOLVING FOR HEAD 

    ------------------------------------------------
       NWT REQUIRED            4 OUTER ITERATIONS 
       AND A TOTAL OF          5 INNER ITERATIONS.
    ------------------------------------------------

 OUTPUT CONTROL FOR STRESS PERIOD    1   TIME STEP    3
    PRINT BUDGET
    SAVE HEAD FOR ALL LAYERS
    SAVE BUDGET
 UBDSV1 SAVING "         STORAGE" ON UNIT 740 AT TIME STEP     3, STRESS PERIOD   1
 UBDSV2 SAVING "   CONSTANT HEAD" ON UNIT 740 AT TIME STEP     3, STRESS PERIOD   1
 UBDSV1 SAVING "FLOW RIGHT FACE " ON UNIT 740 AT TIME STEP     3, STRESS PERIOD   1
 UBDSV1 SAVING "FLOW FRONT FACE " ON UNIT 740 AT TIME STEP     3, STRESS PERIOD   1
 UBDSV4 SAVING "           WELLS" ON UNIT 740 AT TIME STEP     3, STRESS PERIOD   1
 UBDSV3 SAVING "              ET" ON UNIT 740 AT TIME STEP     3, STRESS PERIOD   1
 UBDSV4 SAVING " HEAD DEP BOUNDS" ON UNIT 740 AT TIME STEP     3, STRESS PERIOD   1
 UBDSV3 SAVING "        RECHARGE" ON UNIT 740 AT TIME STEP     3, STRESS PERIOD   1
 UBDSV4 SAVING "  STREAM LEAKAGE" ON UNIT 740 AT TIME STEP     3, STRESS PERIOD   1
 UBDSV2 SAVING "STREAMFLOW OUT  " ON UNIT 741 AT TIME STEP     3, STRESS PERIOD   1




 HEAD WILL BE SAVED ON UNIT  730 AT END OF TIME STEP    3, STRESS PERIOD    1
1
  VOLUMETRIC BUDGET FOR ENTIRE MODEL AT END OF TIME STEP    3, STRESS PERIOD   1
  ------------------------------------------------------------------------------

     CUMULATIVE VOLUMES      L**3       RATES FOR THIS TIME STEP      L**3/T
     ------------------                 ------------------------

           IN:                                      IN:
           ---                                      ---
             STORAGE =   447010784.0000               STORAGE =          95.4304
       CONSTANT HEAD =           0.0000         CONSTANT HEAD =           0.0000
               WELLS =           0.0000                 WELLS =           0.0000
                  ET =           0.0000                    ET =           0.0000
     HEAD DEP BOUNDS =      981831.1875       HEAD DEP BOUNDS =           0.2190
            RECHARGE =     8049050.0000              RECHARGE =           1.7937
      STREAM LEAKAGE =   205984528.0000        STREAM LEAKAGE =          45.5594

            TOTAL IN =   662026176.0000              TOTAL IN =         143.0026

          OUT:                                     OUT:
          ----                                     ----
             STORAGE =    42202812.0000               STORAGE =           4.8294
       CONSTANT HEAD =           0.0000         CONSTANT HEAD =           0.0000
               WELLS =   448727552.0000                 WELLS =         100.0000
                  ET =   145902496.0000                    ET =          31.5763
     HEAD DEP BOUNDS =     1278979.5000       HEAD DEP BOUNDS =           0.2926
            RECHARGE =           0.0000              RECHARGE =           0.0000
      STREAM LEAKAGE =    23914562.0000        STREAM LEAKAGE =           6.3044

           TOTAL OUT =   662026432.0000             TOTAL OUT =         143.0026

            IN - OUT =        -256.0000              IN - OUT =      -4.5776E-05

 PERCENT DISCREPANCY =          -0.00     PERCENT DISCREPANCY =          -0.00






         TIME SUMMARY AT END OF TIME STEP    3 IN STRESS PERIOD    1
                    SECONDS     MINUTES      HOURS       DAYS        YEARS
                    -----------------------------------------------------------
   TIME STEP LENGTH 1.64036E+06  27339.      455.66      18.986     5.19800E-02
 STRESS PERIOD TIME 4.48728E+06  74788.      1246.5      51.936     0.14219    
         TOTAL TIME 4.48728E+06  74788.      1246.5      51.936     0.14219    
1
 
 SOLVING FOR HEAD 

    ------------------------------------------------
       NWT REQUIRED            4 OUTER ITERATIONS 
       AND A TOTAL OF          5 INNER ITERATIONS.
    ------------------------------------------------

 OUTPUT CONTROL FOR STRESS PERIOD    1   TIME STEP    4
    PRINT BUDGET
    SAVE HEAD FOR ALL LAYERS
    SAVE BUDGET
 UBDSV1 SAVING "         STORAGE" ON UNIT 740 AT TIME STEP     4, STRESS PERIOD   1
 UBDSV2 SAVING "   CONSTANT HEAD" ON UNIT 740 AT TIME STEP     4, STRESS PERIOD   1
 UBDSV1 SAVING "FLOW RIGHT FACE " ON UNIT 740 AT TIME STEP     4, STRESS PERIOD   1
 UBDSV1 SAVING "FLOW FRONT FACE " ON UNIT 740 AT TIME STEP     4, STRESS PERIOD   1
 UBDSV4 SAVING "           WELLS" ON UNIT 740 AT TIME STEP     4, STRESS PERIOD   1
 UBDSV3 SAVING "              ET" ON UNIT 740 AT TIME STEP     4, STRESS PERIOD   1
 UBDSV4 SAVING " HEAD DEP BOUNDS" ON UNIT 740 AT TIME STEP     4, STRESS PERIOD   1
 UBDSV3 SAVING "        RECHARGE" ON UNIT 740 AT TIME STEP     4, STRESS PERIOD   1
 UBDSV4 SAVING "  STREAM LEAKAGE" ON UNIT 740 AT TIME STEP     4, STRESS PERIOD   1
 UBDSV2 SAVING "STREAMFLOW OUT  " ON UNIT 741 AT TIME STEP     4, STRESS PERIOD   1




 HEAD WILL BE SAVED ON UNIT  730 AT END OF TIME STEP    4, STRESS PERIOD    1
1
  VOLUMETRIC BUDGET FOR ENTIRE MODEL AT END OF TIME STEP    4, STRESS PERIOD   1
  ------------------------------------------------------------------------------

     CUMULATIVE VOLUMES      L**3       RATES FOR THIS TIME STEP      L**3/T
     ------------------                 ------------------------

           IN:                                      IN:
           ---                                      ---
             STORAGE =   613511232.0000               STORAGE =          92.2747
       CONSTANT HEAD =           0.0000         CONSTANT HEAD =           0.0000
               WELLS =           0.0000                 WELLS =           0.0000
                  ET =           0.0000                    ET =           0.0000
     HEAD DEP BOUNDS =     1377004.7500       HEAD DEP BOUNDS =           0.2190
            RECHARGE =    11285692.0000              RECHARGE =           1.7937
      STREAM LEAKAGE =   288769216.0000        STREAM LEAKAGE =          45.8793

            TOTAL IN =   914943168.0000              TOTAL IN =         140.1668

          OUT:                                     OUT:
          ----                                     ----
             STORAGE =    47932780.0000               STORAGE =           3.1756
       CONSTANT HEAD =           0.0000         CONSTANT HEAD =           0.0000
               WELLS =   629167552.0000                 WELLS =         100.0000
                  ET =   200645824.0000                    ET =          30.3388
     HEAD DEP BOUNDS =     1811340.0000       HEAD DEP BOUNDS =           0.2950
            RECHARGE =           0.0000              RECHARGE =           0.0000
      STREAM LEAKAGE =    35385924.0000        STREAM LEAKAGE =           6.3574

           TOTAL OUT =   914943424.0000             TOTAL OUT =         140.1668

            IN - OUT =        -256.0000              IN - OUT =      -4.5776E-05

 PERCENT DISCREPANCY =          -0.00     PERCENT DISCREPANCY =          -0.00






         TIME SUMMARY AT END OF TIME STEP    4 IN STRESS PERIOD    1
                    SECONDS     MINUTES      HOURS       DAYS        YEARS
                    -----------------------------------------------------------
   TIME STEP LENGTH 1.80440E+06  30073.      501.22      20.884     5.71780E-02
 STRESS PERIOD TIME 6.29168E+06 1.04861E+05  1747.7      72.820     0.19937    
         TOTAL TIME 6.29168E+06 1.04861E+05  1747.7      72.820     0.19937    
1
 
 SOLVING FOR HEAD 

    ------------------------------------------------
       NWT REQUIRED            5 OUTER ITERATIONS 
       AND A TOTAL OF          7 INNER ITERATIONS.
    ------------------------------------------------

 OUTPUT CONTROL FOR STRESS PERIOD    1   TIME STEP    5
    PRINT BUDGET
    SAVE HEAD FOR ALL LAYERS
    SAVE BUDGET
 UBDSV1 SAVING "         STORAGE" ON UNIT 740 AT TIME STEP     5, STRESS PERIOD   1
 UBDSV2 SAVING "   CONSTANT HEAD" ON UNIT 740 AT TIME STEP     5, STRESS PERIOD   1
 UBDSV1 SAVING "FLOW RIGHT FACE " ON UNIT 740 AT TIME STEP     5, STRESS PERIOD   1
 UBDSV1 SAVING "FLOW FRONT FACE " ON UNIT 740 AT TIME STEP     5, STRESS PERIOD   1
 UBDSV4 SAVING "           WELLS" ON UNIT 740 AT TIME STEP     5, STRESS PERIOD   1
 UBDSV3 SAVING "              ET" ON UNIT 740 AT TIME STEP     5, STRESS PERIOD   1
 UBDSV4 SAVING " HEAD DEP BOUNDS" ON UNIT 740 AT TIME STEP     5, STRESS PERIOD   1
 UBDSV3 SAVING "        RECHARGE" ON UNIT 740 AT TIME STEP     5, STRESS PERIOD   1
 UBDSV4 SAVING "  STREAM LEAKAGE" ON UNIT 740 AT TIME STEP     5, STRESS PERIOD   1
 UBDSV2 SAVING "STREAMFLOW OUT  " ON UNIT 741 AT TIME STEP     5, STRESS PERIOD   1




 HEAD WILL BE SAVED ON UNIT  730 AT END OF TIME STEP    5, STRESS PERIOD    1
1
  VOLUMETRIC BUDGET FOR ENTIRE MODEL AT END OF TIME STEP    5, STRESS PERIOD   1
  ------------------------------------------------------------------------------

     CUMULATIVE VOLUMES      L**3       RATES FOR THIS TIME STEP      L**3/T
     ------------------                 ------------------------

           IN:                                      IN:
           ---                                      ---
             STORAGE =   791046528.0000               STORAGE =          89.4456
       CONSTANT HEAD =           0.0000         CONSTANT HEAD =           0.0000
               WELLS =           0.0000                 WELLS =           0.0000
                  ET =           0.0000                    ET =           0.0000
     HEAD DEP BOUNDS =     1811593.0000       HEAD DEP BOUNDS =           0.2190
            RECHARGE =    14845998.0000              RECHARGE =           1.7937
      STREAM LEAKAGE =   381112768.0000        STREAM LEAKAGE =          46.5244

            TOTAL IN =  1188816896.0000              TOTAL IN =         137.9828

          OUT:                                     OUT:
          ----                                     ----
             STORAGE =    52605752.0000               STORAGE =           2.3543
       CONSTANT HEAD =           0.0000         CONSTANT HEAD =           0.0000
               WELLS =   827651584.0000                 WELLS =         100.0000
                  ET =   258334912.0000                    ET =          29.0649
     HEAD DEP BOUNDS =     2398633.0000       HEAD DEP BOUNDS =           0.2959
            RECHARGE =           0.0000              RECHARGE =           0.0000
      STREAM LEAKAGE =    47826272.0000        STREAM LEAKAGE =           6.2677

           TOTAL OUT =  1188817152.0000             TOTAL OUT =         137.9828

            IN - OUT =        -256.0000              IN - OUT =           0.0000

 PERCENT DISCREPANCY =          -0.00     PERCENT DISCREPANCY =           0.00






         TIME SUMMARY AT END OF TIME STEP    5 IN STRESS PERIOD    1
                    SECONDS     MINUTES      HOURS       DAYS        YEARS
                    -----------------------------------------------------------
   TIME STEP LENGTH 1.98484E+06  33081.      551.34      22.973     6.28958E-02
 STRESS PERIOD TIME 8.27652E+06 1.37942E+05  2299.0      95.793     0.26227    
         TOTAL TIME 8.27652E+06 1.37942E+05  2299.0      95.793     0.26227    
1
 
 SOLVING FOR HEAD 

    ------------------------------------------------
       NWT REQUIRED            5 OUTER ITERATIONS 
       AND A TOTAL OF          7 INNER ITERATIONS.
    ------------------------------------------------

 OUTPUT CONTROL FOR STRESS PERIOD    1   TIME STEP    6
    PRINT BUDGET
    SAVE HEAD FOR ALL LAYERS
    SAVE BUDGET
 UBDSV1 SAVING "         STORAGE" ON UNIT 740 AT TIME STEP     6, STRESS PERIOD   1
 UBDSV2 SAVING "   CONSTANT HEAD" ON UNIT 740 AT TIME STEP     6, STRESS PERIOD   1
 UBDSV1 SAVING "FLOW RIGHT FACE " ON UNIT 740 AT TIME STEP     6, STRESS PERIOD   1
 UBDSV1 SAVING "FLOW FRONT FACE " ON UNIT 740 AT TIME STEP     6, STRESS PERIOD   1
 UBDSV4 SAVING "           WELLS" ON UNIT 740 AT TIME STEP     6, STRESS PERIOD   1
 UBDSV3 SAVING "              ET" ON UNIT 740 AT TIME STEP     6, STRESS PERIOD   1
 UBDSV4 SAVING " HEAD DEP BOUNDS" ON UNIT 740 AT TIME STEP     6, STRESS PERIOD   1
 UBDSV3 SAVING "        RECHARGE" ON UNIT 740 AT TIME STEP     6, STRESS PERIOD   1
 UBDSV4 SAVING "  STREAM LEAKAGE" ON UNIT 740 AT TIME STEP     6, STRESS PERIOD   1
 UBDSV2 SAVING "STREAMFLOW OUT  " ON UNIT 741 AT TIME STEP     6, STRESS PERIOD   1




 HEAD WILL BE SAVED ON UNIT  730 AT END OF TIME STEP    6, STRESS PERIOD    1
1
  VOLUMETRIC BUDGET FOR ENTIRE MODEL AT END OF TIME STEP    6, STRESS PERIOD   1
  ------------------------------------------------------------------------------

     CUMULATIVE VOLUMES      L**3       RATES FOR THIS TIME STEP      L**3/T
     ------------------                 ------------------------

           IN:                                      IN:
           ---                                      ---
             STORAGE =   981175168.0000               STORAGE =          87.0822
       CONSTANT HEAD =           0.0000         CONSTANT HEAD =           0.0000
               WELLS =           0.0000                 WELLS =           0.0000
                  ET =           0.0000                    ET =           0.0000
     HEAD DEP BOUNDS =     2289545.5000       HEAD DEP BOUNDS =           0.2189
            RECHARGE =    18762336.0000              RECHARGE =           1.7937
      STREAM LEAKAGE =   483249472.0000        STREAM LEAKAGE =          46.7804

            TOTAL IN =  1485476608.0000              TOTAL IN =         135.8752

          OUT:                                     OUT:
          ----                                     ----
             STORAGE =    56832348.0000               STORAGE =           1.9359
       CONSTANT HEAD =           0.0000         CONSTANT HEAD =           0.0000
               WELLS =  1045984000.0000                 WELLS =         100.0000
                  ET =   318824128.0000                    ET =          27.7051
     HEAD DEP BOUNDS =     3045232.5000       HEAD DEP BOUNDS =           0.2962
            RECHARGE =           0.0000              RECHARGE =           0.0000
      STREAM LEAKAGE =    60791160.0000        STREAM LEAKAGE =           5.9381

           TOTAL OUT =  1485476864.0000             TOTAL OUT =         135.8752

            IN - OUT =        -256.0000              IN - OUT =           0.0000

 PERCENT DISCREPANCY =          -0.00     PERCENT DISCREPANCY =           0.00






         TIME SUMMARY AT END OF TIME STEP    6 IN STRESS PERIOD    1
                    SECONDS     MINUTES      HOURS       DAYS        YEARS
                    -----------------------------------------------------------
   TIME STEP LENGTH 2.18332E+06  36389.      606.48      25.270     6.91854E-02
 STRESS PERIOD TIME 1.04598E+07 1.74331E+05  2905.5      121.06     0.33145    
         TOTAL TIME 1.04598E+07 1.74331E+05  2905.5      121.06     0.33145    
1
 
 SOLVING FOR HEAD 

    ------------------------------------------------
       NWT REQUIRED            4 OUTER ITERATIONS 
       AND A TOTAL OF          6 INNER ITERATIONS.
    ------------------------------------------------

 OUTPUT CONTROL FOR STRESS PERIOD    1   TIME STEP    7
    PRINT BUDGET
    SAVE HEAD FOR ALL LAYERS
    SAVE BUDGET
 UBDSV1 SAVING "         STORAGE" ON UNIT 740 AT TIME STEP     7, STRESS PERIOD   1
 UBDSV2 SAVING "   CONSTANT HEAD" ON UNIT 740 AT TIME STEP     7, STRESS PERIOD   1
 UBDSV1 SAVING "FLOW RIGHT FACE " ON UNIT 740 AT TIME STEP     7, STRESS PERIOD   1
 UBDSV1 SAVING "FLOW FRONT FACE " ON UNIT 740 AT TIME STEP     7, STRESS PERIOD   1
 UBDSV4 SAVING "           WELLS" ON UNIT 740 AT TIME STEP     7, STRESS PERIOD   1
 UBDSV3 SAVING "              ET" ON UNIT 740 AT TIME STEP     7, STRESS PERIOD   1
 UBDSV4 SAVING " HEAD DEP BOUNDS" ON UNIT 740 AT TIME STEP     7, STRESS PERIOD   1
 UBDSV3 SAVING "        RECHARGE" ON UNIT 740 AT TIME STEP     7, STRESS PERIOD   1
 UBDSV4 SAVING "  STREAM LEAKAGE" ON UNIT 740 AT TIME STEP     7, STRESS PERIOD   1
 UBDSV2 SAVING "STREAMFLOW OUT  " ON UNIT 741 AT TIME STEP     7, STRESS PERIOD   1




 HEAD WILL BE SAVED ON UNIT  730 AT END OF TIME STEP    7, STRESS PERIOD    1
1
  VOLUMETRIC BUDGET FOR ENTIRE MODEL AT END OF TIME STEP    7, STRESS PERIOD   1
  ------------------------------------------------------------------------------

     CUMULATIVE VOLUMES      L**3       RATES FOR THIS TIME STEP      L**3/T
     ------------------                 ------------------------

           IN:                                      IN:
           ---                                      ---
             STORAGE =  1185018624.0000               STORAGE =          84.8762
       CONSTANT HEAD =           0.0000         CONSTANT HEAD =           0.0000
               WELLS =           0.0000                 WELLS =           0.0000
                  ET =           0.0000                    ET =           0.0000
     HEAD DEP BOUNDS =     2815224.5000       HEAD DEP BOUNDS =           0.2189
            RECHARGE =    23070308.0000              RECHARGE =           1.7937
      STREAM LEAKAGE =   596294656.0000        STREAM LEAKAGE =          47.0697

            TOTAL IN =  1807198848.0000              TOTAL IN =         133.9585

          OUT:                                     OUT:
          ----                                     ----
             STORAGE =    60731604.0000               STORAGE =           1.6236
       CONSTANT HEAD =           0.0000         CONSTANT HEAD =           0.0000
               WELLS =  1286149632.0000                 WELLS =         100.0000
                  ET =   382654240.0000                    ET =          26.5775
     HEAD DEP BOUNDS =     3756510.2500       HEAD DEP BOUNDS =           0.2962
            RECHARGE =           0.0000              RECHARGE =           0.0000
      STREAM LEAKAGE =    73907288.0000        STREAM LEAKAGE =           5.4613

           TOTAL OUT =  1807199360.0000             TOTAL OUT =         133.9586

            IN - OUT =        -512.0000              IN - OUT =      -3.0518E-05

 PERCENT DISCREPANCY =          -0.00     PERCENT DISCREPANCY =          -0.00






         TIME SUMMARY AT END OF TIME STEP    7 IN STRESS PERIOD    1
                    SECONDS     MINUTES      HOURS       DAYS        YEARS
                    -----------------------------------------------------------
   TIME STEP LENGTH 2.40166E+06  40028.      667.13      27.797     7.61039E-02
 STRESS PERIOD TIME 1.28615E+07 2.14358E+05  3572.6      148.86     0.40756    
         TOTAL TIME 1.28615E+07 2.14358E+05  3572.6      148.86     0.40756    
1
 
 SOLVING FOR HEAD 

    ------------------------------------------------
       NWT REQUIRED            4 OUTER ITERATIONS 
       AND A TOTAL OF          6 INNER ITERATIONS.
    ------------------------------------------------

 OUTPUT CONTROL FOR STRESS PERIOD    1   TIME STEP    8
    PRINT BUDGET
    SAVE HEAD FOR ALL LAYERS
    SAVE BUDGET
 UBDSV1 SAVING "         STORAGE" ON UNIT 740 AT TIME STEP     8, STRESS PERIOD   1
 UBDSV2 SAVING "   CONSTANT HEAD" ON UNIT 740 AT TIME STEP     8, STRESS PERIOD   1
 UBDSV1 SAVING "FLOW RIGHT FACE " ON UNIT 740 AT TIME STEP     8, STRESS PERIOD   1
 UBDSV1 SAVING "FLOW FRONT FACE " ON UNIT 740 AT TIME STEP     8, STRESS PERIOD   1
 UBDSV4 SAVING "           WELLS" ON UNIT 740 AT TIME STEP     8, STRESS PERIOD   1
 UBDSV3 SAVING "              ET" ON UNIT 740 AT TIME STEP     8, STRESS PERIOD   1
 UBDSV4 SAVING " HEAD DEP BOUNDS" ON UNIT 740 AT TIME STEP     8, STRESS PERIOD   1
 UBDSV3 SAVING "        RECHARGE" ON UNIT 740 AT TIME STEP     8, STRESS PERIOD   1
 UBDSV4 SAVING "  STREAM LEAKAGE" ON UNIT 740 AT TIME STEP     8, STRESS PERIOD   1
 UBDSV2 SAVING "STREAMFLOW OUT  " ON UNIT 741 AT TIME STEP     8, STRESS PERIOD   1




 HEAD WILL BE SAVED ON UNIT  730 AT END OF TIME STEP    8, STRESS PERIOD    1
1
  VOLUMETRIC BUDGET FOR ENTIRE MODEL AT END OF TIME STEP    8, STRESS PERIOD   1
  ------------------------------------------------------------------------------

     CUMULATIVE VOLUMES      L**3       RATES FOR THIS TIME STEP      L**3/T
     ------------------                 ------------------------

           IN:                                      IN:
           ---                                      ---
             STORAGE =  1403180032.0000               STORAGE =          82.5799
       CONSTANT HEAD =           0.0000         CONSTANT HEAD =           0.0000
               WELLS =           0.0000                 WELLS =           0.0000
                  ET =           0.0000                    ET =           0.0000
     HEAD DEP BOUNDS =     3393430.0000       HEAD DEP BOUNDS =           0.2189
            RECHARGE =    27809076.0000              RECHARGE =           1.7937
      STREAM LEAKAGE =   722038848.0000        STREAM LEAKAGE =          47.5975

            TOTAL IN =  2156421376.0000              TOTAL IN =         132.1900

          OUT:                                     OUT:
          ----                                     ----
             STORAGE =    64199828.0000               STORAGE =           1.3128
       CONSTANT HEAD =           0.0000         CONSTANT HEAD =           0.0000
               WELLS =  1550331904.0000                 WELLS =         100.0000
                  ET =   449999424.0000                    ET =          25.4919
     HEAD DEP BOUNDS =     4538619.0000       HEAD DEP BOUNDS =           0.2960
            RECHARGE =           0.0000              RECHARGE =           0.0000
      STREAM LEAKAGE =    87352120.0000        STREAM LEAKAGE =           5.0892

           TOTAL OUT =  2156421888.0000             TOTAL OUT =         132.1900

            IN - OUT =        -512.0000              IN - OUT =      -1.5259E-05

 PERCENT DISCREPANCY =          -0.00     PERCENT DISCREPANCY =          -0.00






         TIME SUMMARY AT END OF TIME STEP    8 IN STRESS PERIOD    1
                    SECONDS     MINUTES      HOURS       DAYS        YEARS
                    -----------------------------------------------------------
   TIME STEP LENGTH 2.64182E+06  44030.      733.84      30.577     8.37143E-02
 STRESS PERIOD TIME 1.55033E+07 2.58389E+05  4306.5      179.44     0.49127    
         TOTAL TIME 1.55033E+07 2.58389E+05  4306.5      179.44     0.49127    
1
 
 SOLVING FOR HEAD 

    ------------------------------------------------
       NWT REQUIRED            4 OUTER ITERATIONS 
       AND A TOTAL OF          7 INNER ITERATIONS.
    ------------------------------------------------

 OUTPUT CONTROL FOR STRESS PERIOD    1   TIME STEP    9
    PRINT BUDGET
    SAVE HEAD FOR ALL LAYERS
    SAVE BUDGET
 UBDSV1 SAVING "         STORAGE" ON UNIT 740 AT TIME STEP     9, STRESS PERIOD   1
 UBDSV2 SAVING "   CONSTANT HEAD" ON UNIT 740 AT TIME STEP     9, STRESS PERIOD   1
 UBDSV1 SAVING "FLOW RIGHT FACE " ON UNIT 740 AT TIME STEP     9, STRESS PERIOD   1
 UBDSV1 SAVING "FLOW FRONT FACE " ON UNIT 740 AT TIME STEP     9, STRESS PERIOD   1
 UBDSV4 SAVING "           WELLS" ON UNIT 740 AT TIME STEP     9, STRESS PERIOD   1
 UBDSV3 SAVING "              ET" ON UNIT 740 AT TIME STEP     9, STRESS PERIOD   1
 UBDSV4 SAVING " HEAD DEP BOUNDS" ON UNIT 740 AT TIME STEP     9, STRESS PERIOD   1
 UBDSV3 SAVING "        RECHARGE" ON UNIT 740 AT TIME STEP     9, STRESS PERIOD   1
 UBDSV4 SAVING "  STREAM LEAKAGE" ON UNIT 740 AT TIME STEP     9, STRESS PERIOD   1
 UBDSV2 SAVING "STREAMFLOW OUT  " ON UNIT 741 AT TIME STEP     9, STRESS PERIOD   1




 HEAD WILL BE SAVED ON UNIT  730 AT END OF TIME STEP    9, STRESS PERIOD    1
1
  VOLUMETRIC BUDGET FOR ENTIRE MODEL AT END OF TIME STEP    9, STRESS PERIOD   1
  ------------------------------------------------------------------------------

     CUMULATIVE VOLUMES      L**3       RATES FOR THIS TIME STEP      L**3/T
     ------------------                 ------------------------

           IN:                                      IN:
           ---                                      ---
             STORAGE =  1636818432.0000               STORAGE =          80.3985
       CONSTANT HEAD =           0.0000         CONSTANT HEAD =           0.0000
               WELLS =           0.0000                 WELLS =           0.0000
                  ET =           0.0000                    ET =           0.0000
     HEAD DEP BOUNDS =     4029440.0000       HEAD DEP BOUNDS =           0.2189
            RECHARGE =    33021722.0000              RECHARGE =           1.7937
      STREAM LEAKAGE =   862199808.0000        STREAM LEAKAGE =          48.2315

            TOTAL IN =  2536069376.0000              TOTAL IN =         130.6426

          OUT:                                     OUT:
          ----                                     ----
             STORAGE =    67202696.0000               STORAGE =           1.0333
       CONSTANT HEAD =           0.0000         CONSTANT HEAD =           0.0000
               WELLS =  1840932352.0000                 WELLS =         100.0000
                  ET =   521462848.0000                    ET =          24.5916
     HEAD DEP BOUNDS =     5398420.0000       HEAD DEP BOUNDS =           0.2959
            RECHARGE =           0.0000              RECHARGE =           0.0000
      STREAM LEAKAGE =   101073616.0000        STREAM LEAKAGE =           4.7218

           TOTAL OUT =  2536070144.0000             TOTAL OUT =         130.6426

            IN - OUT =        -768.0000              IN - OUT =      -1.5259E-05

 PERCENT DISCREPANCY =          -0.00     PERCENT DISCREPANCY =          -0.00






         TIME SUMMARY AT END OF TIME STEP    9 IN STRESS PERIOD    1
                    SECONDS     MINUTES      HOURS       DAYS        YEARS
                    -----------------------------------------------------------
   TIME STEP LENGTH 2.90600E+06  48433.      807.22      33.634     9.20857E-02
 STRESS PERIOD TIME 1.84093E+07 3.06822E+05  5113.7      213.07     0.58336    
         TOTAL TIME 1.84093E+07 3.06822E+05  5113.7      213.07     0.58336    
1
 
 SOLVING FOR HEAD 

    ------------------------------------------------
       NWT REQUIRED            4 OUTER ITERATIONS 
       AND A TOTAL OF          7 INNER ITERATIONS.
    ------------------------------------------------

 OUTPUT CONTROL FOR STRESS PERIOD    1   TIME STEP   10
    PRINT BUDGET
    SAVE HEAD FOR ALL LAYERS
    SAVE BUDGET
 UBDSV1 SAVING "         STORAGE" ON UNIT 740 AT TIME STEP    10, STRESS PERIOD   1
 UBDSV2 SAVING "   CONSTANT HEAD" ON UNIT 740 AT TIME STEP    10, STRESS PERIOD   1
 UBDSV1 SAVING "FLOW RIGHT FACE " ON UNIT 740 AT TIME STEP    10, STRESS PERIOD   1
 UBDSV1 SAVING "FLOW FRONT FACE " ON UNIT 740 AT TIME STEP    10, STRESS PERIOD   1
 UBDSV4 SAVING "           WELLS" ON UNIT 740 AT TIME STEP    10, STRESS PERIOD   1
 UBDSV3 SAVING "              ET" ON UNIT 740 AT TIME STEP    10, STRESS PERIOD   1
 UBDSV4 SAVING " HEAD DEP BOUNDS" ON UNIT 740 AT TIME STEP    10, STRESS PERIOD   1
 UBDSV3 SAVING "        RECHARGE" ON UNIT 740 AT TIME STEP    10, STRESS PERIOD   1
 UBDSV4 SAVING "  STREAM LEAKAGE" ON UNIT 740 AT TIME STEP    10, STRESS PERIOD   1
 UBDSV2 SAVING "STREAMFLOW OUT  " ON UNIT 741 AT TIME STEP    10, STRESS PERIOD   1




 HEAD WILL BE SAVED ON UNIT  730 AT END OF TIME STEP   10, STRESS PERIOD    1
1
  VOLUMETRIC BUDGET FOR ENTIRE MODEL AT END OF TIME STEP   10, STRESS PERIOD   1
  ------------------------------------------------------------------------------

     CUMULATIVE VOLUMES      L**3       RATES FOR THIS TIME STEP      L**3/T
     ------------------                 ------------------------

           IN:                                      IN:
           ---                                      ---
             STORAGE =  1886958976.0000               STORAGE =          78.2519
       CONSTANT HEAD =           0.0000         CONSTANT HEAD =           0.0000
               WELLS =           0.0000                 WELLS =           0.0000
                  ET =           0.0000                    ET =           0.0000
     HEAD DEP BOUNDS =     4729057.0000       HEAD DEP BOUNDS =           0.2189
            RECHARGE =    38755632.0000              RECHARGE =           1.7937
      STREAM LEAKAGE =  1018549184.0000        STREAM LEAKAGE =          48.9111

            TOTAL IN =  2948992768.0000              TOTAL IN =         129.1756

          OUT:                                     OUT:
          ----                                     ----
             STORAGE =    69746352.0000               STORAGE =           0.7957
       CONSTANT HEAD =           0.0000         CONSTANT HEAD =           0.0000
               WELLS =  2160592896.0000                 WELLS =         100.0000
                  ET =   597442880.0000                    ET =          23.7690
     HEAD DEP BOUNDS =     6343482.0000       HEAD DEP BOUNDS =           0.2956
            RECHARGE =           0.0000              RECHARGE =           0.0000
      STREAM LEAKAGE =   114867768.0000        STREAM LEAKAGE =           4.3152

           TOTAL OUT =  2948993280.0000             TOTAL OUT =         129.1756

            IN - OUT =        -512.0000              IN - OUT =      -1.5259E-05

 PERCENT DISCREPANCY =          -0.00     PERCENT DISCREPANCY =          -0.00






         TIME SUMMARY AT END OF TIME STEP   10 IN STRESS PERIOD    1
                    SECONDS     MINUTES      HOURS       DAYS        YEARS
                    -----------------------------------------------------------
   TIME STEP LENGTH 3.19660E+06  53277.      887.95      36.998     0.10129    
 STRESS PERIOD TIME 2.16059E+07 3.60099E+05  6001.6      250.07     0.68465    
         TOTAL TIME 2.16059E+07 3.60099E+05  6001.6      250.07     0.68465    
1
 
 SOLVING FOR HEAD 

    ------------------------------------------------
       NWT REQUIRED            4 OUTER ITERATIONS 
       AND A TOTAL OF          7 INNER ITERATIONS.
    ------------------------------------------------

 OUTPUT CONTROL FOR STRESS PERIOD    1   TIME STEP   11
    PRINT BUDGET
    SAVE HEAD FOR ALL LAYERS
    SAVE BUDGET
 UBDSV1 SAVING "         STORAGE" ON UNIT 740 AT TIME STEP    11, STRESS PERIOD   1
 UBDSV2 SAVING "   CONSTANT HEAD" ON UNIT 740 AT TIME STEP    11, STRESS PERIOD   1
 UBDSV1 SAVING "FLOW RIGHT FACE " ON UNIT 740 AT TIME STEP    11, STRESS PERIOD   1
 UBDSV1 SAVING "FLOW FRONT FACE " ON UNIT 740 AT TIME STEP    11, STRESS PERIOD   1
 UBDSV4 SAVING "           WELLS" ON UNIT 740 AT TIME STEP    11, STRESS PERIOD   1
 UBDSV3 SAVING "              ET" ON UNIT 740 AT TIME STEP    11, STRESS PERIOD   1
 UBDSV4 SAVING " HEAD DEP BOUNDS" ON UNIT 740 AT TIME STEP    11, STRESS PERIOD   1
 UBDSV3 SAVING "        RECHARGE" ON UNIT 740 AT TIME STEP    11, STRESS PERIOD   1
 UBDSV4 SAVING "  STREAM LEAKAGE" ON UNIT 740 AT TIME STEP    11, STRESS PERIOD   1
 UBDSV2 SAVING "STREAMFLOW OUT  " ON UNIT 741 AT TIME STEP    11, STRESS PERIOD   1




 HEAD WILL BE SAVED ON UNIT  730 AT END OF TIME STEP   11, STRESS PERIOD    1
1
  VOLUMETRIC BUDGET FOR ENTIRE MODEL AT END OF TIME STEP   11, STRESS PERIOD   1
  ------------------------------------------------------------------------------

     CUMULATIVE VOLUMES      L**3       RATES FOR THIS TIME STEP      L**3/T
     ------------------                 ------------------------

           IN:                                      IN:
           ---                                      ---
             STORAGE =  2154795008.0000               STORAGE =          76.1706
       CONSTANT HEAD =           0.0000         CONSTANT HEAD =           0.0000
               WELLS =           0.0000                 WELLS =           0.0000
                  ET =           0.0000                    ET =           0.0000
     HEAD DEP BOUNDS =     5498662.0000       HEAD DEP BOUNDS =           0.2189
            RECHARGE =    45062932.0000              RECHARGE =           1.7937
      STREAM LEAKAGE =  1193067776.0000        STREAM LEAKAGE =          49.6318

            TOTAL IN =  3398424320.0000              TOTAL IN =         127.8150

          OUT:                                     OUT:
          ----                                     ----
             STORAGE =    71944848.0000               STORAGE =           0.6252
       CONSTANT HEAD =           0.0000         CONSTANT HEAD =           0.0000
               WELLS =  2512219392.0000                 WELLS =         100.0000
                  ET =   678396928.0000                    ET =          23.0227
     HEAD DEP BOUNDS =     7382114.5000       HEAD DEP BOUNDS =           0.2954
            RECHARGE =           0.0000              RECHARGE =           0.0000
      STREAM LEAKAGE =   128481584.0000        STREAM LEAKAGE =           3.8717

           TOTAL OUT =  3398424832.0000             TOTAL OUT =         127.8150

            IN - OUT =        -512.0000              IN - OUT =      -7.6294E-06

 PERCENT DISCREPANCY =          -0.00     PERCENT DISCREPANCY =          -0.00






         TIME SUMMARY AT END OF TIME STEP   11 IN STRESS PERIOD    1
                    SECONDS     MINUTES      HOURS       DAYS        YEARS
                    -----------------------------------------------------------
   TIME STEP LENGTH 3.51627E+06  58604.      976.74      40.698     0.11142    
 STRESS PERIOD TIME 2.51222E+07 4.18703E+05  6978.4      290.77     0.79607    
         TOTAL TIME 2.51222E+07 4.18703E+05  6978.4      290.77     0.79607    
1
 
 SOLVING FOR HEAD 

    ------------------------------------------------
       NWT REQUIRED            4 OUTER ITERATIONS 
       AND A TOTAL OF          7 INNER ITERATIONS.
    ------------------------------------------------

 OUTPUT CONTROL FOR STRESS PERIOD    1   TIME STEP   12
    PRINT BUDGET
    SAVE HEAD FOR ALL LAYERS
    SAVE BUDGET
 UBDSV1 SAVING "         STORAGE" ON UNIT 740 AT TIME STEP    12, STRESS PERIOD   1
 UBDSV2 SAVING "   CONSTANT HEAD" ON UNIT 740 AT TIME STEP    12, STRESS PERIOD   1
 UBDSV1 SAVING "FLOW RIGHT FACE " ON UNIT 740 AT TIME STEP    12, STRESS PERIOD   1
 UBDSV1 SAVING "FLOW FRONT FACE " ON UNIT 740 AT TIME STEP    12, STRESS PERIOD   1
 UBDSV4 SAVING "           WELLS" ON UNIT 740 AT TIME STEP    12, STRESS PERIOD   1
 UBDSV3 SAVING "              ET" ON UNIT 740 AT TIME STEP    12, STRESS PERIOD   1
 UBDSV4 SAVING " HEAD DEP BOUNDS" ON UNIT 740 AT TIME STEP    12, STRESS PERIOD   1
 UBDSV3 SAVING "        RECHARGE" ON UNIT 740 AT TIME STEP    12, STRESS PERIOD   1
 UBDSV4 SAVING "  STREAM LEAKAGE" ON UNIT 740 AT TIME STEP    12, STRESS PERIOD   1
 UBDSV2 SAVING "STREAMFLOW OUT  " ON UNIT 741 AT TIME STEP    12, STRESS PERIOD   1




 HEAD WILL BE SAVED ON UNIT  730 AT END OF TIME STEP   12, STRESS PERIOD    1
1
  VOLUMETRIC BUDGET FOR ENTIRE MODEL AT END OF TIME STEP   12, STRESS PERIOD   1
  ------------------------------------------------------------------------------

     CUMULATIVE VOLUMES      L**3       RATES FOR THIS TIME STEP      L**3/T
     ------------------                 ------------------------

           IN:                                      IN:
           ---                                      ---
             STORAGE =  2441352448.0000               STORAGE =          74.0862
       CONSTANT HEAD =           0.0000         CONSTANT HEAD =           0.0000
               WELLS =           0.0000                 WELLS =           0.0000
                  ET =           0.0000                    ET =           0.0000
     HEAD DEP BOUNDS =     6345273.5000       HEAD DEP BOUNDS =           0.2189
            RECHARGE =    52000964.0000              RECHARGE =           1.7937
      STREAM LEAKAGE =  1387896832.0000        STREAM LEAKAGE =          50.3708

            TOTAL IN =  3887595520.0000              TOTAL IN =         126.4697

          OUT:                                     OUT:
          ----                                     ----
             STORAGE =    73800336.0000               STORAGE =           0.4797
       CONSTANT HEAD =           0.0000         CONSTANT HEAD =           0.0000
               WELLS =  2899008512.0000                 WELLS =         100.0000
                  ET =   764660416.0000                    ET =          22.3025
     HEAD DEP BOUNDS =     8523440.0000       HEAD DEP BOUNDS =           0.2951
            RECHARGE =           0.0000              RECHARGE =           0.0000
      STREAM LEAKAGE =   141603312.0000        STREAM LEAKAGE =           3.3925

           TOTAL OUT =  3887596288.0000             TOTAL OUT =         126.4697

            IN - OUT =        -768.0000              IN - OUT =      -1.5259E-05

 PERCENT DISCREPANCY =          -0.00     PERCENT DISCREPANCY =          -0.00






         TIME SUMMARY AT END OF TIME STEP   12 IN STRESS PERIOD    1
                    SECONDS     MINUTES      HOURS       DAYS        YEARS
                    -----------------------------------------------------------
   TIME STEP LENGTH 3.86789E+06  64465.      1074.4      44.767     0.12257    
 STRESS PERIOD TIME 2.89901E+07 4.83168E+05  8052.8      335.53     0.91864    
         TOTAL TIME 2.89901E+07 4.83168E+05  8052.8      335.53     0.91864    
1
 
 SOLVING FOR HEAD 

    ------------------------------------------------
       NWT REQUIRED            4 OUTER ITERATIONS 
       AND A TOTAL OF          7 INNER ITERATIONS.
    ------------------------------------------------

 OUTPUT CONTROL FOR STRESS PERIOD    1   TIME STEP   13
    PRINT BUDGET
    SAVE HEAD FOR ALL LAYERS
    SAVE BUDGET
 UBDSV1 SAVING "         STORAGE" ON UNIT 740 AT TIME STEP    13, STRESS PERIOD   1
 UBDSV2 SAVING "   CONSTANT HEAD" ON UNIT 740 AT TIME STEP    13, STRESS PERIOD   1
 UBDSV1 SAVING "FLOW RIGHT FACE " ON UNIT 740 AT TIME STEP    13, STRESS PERIOD   1
 UBDSV1 SAVING "FLOW FRONT FACE " ON UNIT 740 AT TIME STEP    13, STRESS PERIOD   1
 UBDSV4 SAVING "           WELLS" ON UNIT 740 AT TIME STEP    13, STRESS PERIOD   1
 UBDSV3 SAVING "              ET" ON UNIT 740 AT TIME STEP    13, STRESS PERIOD   1
 UBDSV4 SAVING " HEAD DEP BOUNDS" ON UNIT 740 AT TIME STEP    13, STRESS PERIOD   1
 UBDSV3 SAVING "        RECHARGE" ON UNIT 740 AT TIME STEP    13, STRESS PERIOD   1
 UBDSV4 SAVING "  STREAM LEAKAGE" ON UNIT 740 AT TIME STEP    13, STRESS PERIOD   1
 UBDSV2 SAVING "STREAMFLOW OUT  " ON UNIT 741 AT TIME STEP    13, STRESS PERIOD   1




 HEAD WILL BE SAVED ON UNIT  730 AT END OF TIME STEP   13, STRESS PERIOD    1
1
  VOLUMETRIC BUDGET FOR ENTIRE MODEL AT END OF TIME STEP   13, STRESS PERIOD   1
  ------------------------------------------------------------------------------

     CUMULATIVE VOLUMES      L**3       RATES FOR THIS TIME STEP      L**3/T
     ------------------                 ------------------------

           IN:                                      IN:
           ---                                      ---
             STORAGE =  2748108800.0000               STORAGE =          72.0986
       CONSTANT HEAD =           0.0000         CONSTANT HEAD =           0.0000
               WELLS =           0.0000                 WELLS =           0.0000
                  ET =           0.0000                    ET =           0.0000
     HEAD DEP BOUNDS =     7276613.5000       HEAD DEP BOUNDS =           0.2189
            RECHARGE =    59632800.0000              RECHARGE =           1.7937
      STREAM LEAKAGE =  1605476224.0000        STREAM LEAKAGE =          51.1388

            TOTAL IN =  4420494336.0000              TOTAL IN =         125.2501

          OUT:                                     OUT:
          ----                                     ----
             STORAGE =    75307776.0000               STORAGE =           0.3543
       CONSTANT HEAD =           0.0000         CONSTANT HEAD =           0.0000
               WELLS =  3324476672.0000                 WELLS =         100.0000
                  ET =   857072512.0000                    ET =          21.7201
     HEAD DEP BOUNDS =     9777446.0000       HEAD DEP BOUNDS =           0.2947
            RECHARGE =           0.0000              RECHARGE =           0.0000
      STREAM LEAKAGE =   153860656.0000        STREAM LEAKAGE =           2.8809

           TOTAL OUT =  4420495360.0000             TOTAL OUT =         125.2500

            IN - OUT =       -1024.0000              IN - OUT =       1.5259E-05

 PERCENT DISCREPANCY =          -0.00     PERCENT DISCREPANCY =           0.00






         TIME SUMMARY AT END OF TIME STEP   13 IN STRESS PERIOD    1
                    SECONDS     MINUTES      HOURS       DAYS        YEARS
                    -----------------------------------------------------------
   TIME STEP LENGTH 4.25468E+06  70911.      1181.9      49.244     0.13482    
 STRESS PERIOD TIME 3.32448E+07 5.54079E+05  9234.7      384.78      1.0535    
         TOTAL TIME 3.32448E+07 5.54079E+05  9234.7      384.78      1.0535    
1
 
 SOLVING FOR HEAD 

    ------------------------------------------------
       NWT REQUIRED            4 OUTER ITERATIONS 
       AND A TOTAL OF          7 INNER ITERATIONS.
    ------------------------------------------------

 OUTPUT CONTROL FOR STRESS PERIOD    1   TIME STEP   14
    PRINT BUDGET
    SAVE HEAD FOR ALL LAYERS
    SAVE BUDGET
 UBDSV1 SAVING "         STORAGE" ON UNIT 740 AT TIME STEP    14, STRESS PERIOD   1
 UBDSV2 SAVING "   CONSTANT HEAD" ON UNIT 740 AT TIME STEP    14, STRESS PERIOD   1
 UBDSV1 SAVING "FLOW RIGHT FACE " ON UNIT 740 AT TIME STEP    14, STRESS PERIOD   1
 UBDSV1 SAVING "FLOW FRONT FACE " ON UNIT 740 AT TIME STEP    14, STRESS PERIOD   1
 UBDSV4 SAVING "           WELLS" ON UNIT 740 AT TIME STEP    14, STRESS PERIOD   1
 UBDSV3 SAVING "              ET" ON UNIT 740 AT TIME STEP    14, STRESS PERIOD   1
 UBDSV4 SAVING " HEAD DEP BOUNDS" ON UNIT 740 AT TIME STEP    14, STRESS PERIOD   1
 UBDSV3 SAVING "        RECHARGE" ON UNIT 740 AT TIME STEP    14, STRESS PERIOD   1
 UBDSV4 SAVING "  STREAM LEAKAGE" ON UNIT 740 AT TIME STEP    14, STRESS PERIOD   1
 UBDSV2 SAVING "STREAMFLOW OUT  " ON UNIT 741 AT TIME STEP    14, STRESS PERIOD   1




 HEAD WILL BE SAVED ON UNIT  730 AT END OF TIME STEP   14, STRESS PERIOD    1
1
  VOLUMETRIC BUDGET FOR ENTIRE MODEL AT END OF TIME STEP   14, STRESS PERIOD   1
  ------------------------------------------------------------------------------

     CUMULATIVE VOLUMES      L**3       RATES FOR THIS TIME STEP      L**3/T
     ------------------                 ------------------------

           IN:                                      IN:
           ---                                      ---
             STORAGE =  3076291072.0000               STORAGE =          70.1221
       CONSTANT HEAD =           0.0000         CONSTANT HEAD =           0.0000
               WELLS =           0.0000                 WELLS =           0.0000
                  ET =           0.0000                    ET =           0.0000
     HEAD DEP BOUNDS =     8301179.0000       HEAD DEP BOUNDS =           0.2189
            RECHARGE =    68027816.0000              RECHARGE =           1.7937
      STREAM LEAKAGE =  1848635136.0000        STREAM LEAKAGE =          51.9554

            TOTAL IN =  5001254912.0000              TOTAL IN =         124.0902

          OUT:                                     OUT:
          ----                                     ----
             STORAGE =    76383560.0000               STORAGE =           0.2299
       CONSTANT HEAD =           0.0000         CONSTANT HEAD =           0.0000
               WELLS =  3792491776.0000                 WELLS =         100.0000
                  ET =   956293504.0000                    ET =          21.2004
     HEAD DEP BOUNDS =    11155074.0000       HEAD DEP BOUNDS =           0.2944
            RECHARGE =           0.0000              RECHARGE =           0.0000
      STREAM LEAKAGE =   164931920.0000        STREAM LEAKAGE =           2.3656

           TOTAL OUT =  5001255936.0000             TOTAL OUT =         124.0902

            IN - OUT =       -1024.0000              IN - OUT =      -7.6294E-06

 PERCENT DISCREPANCY =          -0.00     PERCENT DISCREPANCY =          -0.00






         TIME SUMMARY AT END OF TIME STEP   14 IN STRESS PERIOD    1
                    SECONDS     MINUTES      HOURS       DAYS        YEARS
                    -----------------------------------------------------------
   TIME STEP LENGTH 4.68015E+06  78002.      1300.0      54.168     0.14830    
 STRESS PERIOD TIME 3.79249E+07 6.32082E+05  10535.      438.95      1.2018    
         TOTAL TIME 3.79249E+07 6.32082E+05  10535.      438.95      1.2018    
1
 
 SOLVING FOR HEAD 

    ------------------------------------------------
       NWT REQUIRED            4 OUTER ITERATIONS 
       AND A TOTAL OF          7 INNER ITERATIONS.
    ------------------------------------------------

 OUTPUT CONTROL FOR STRESS PERIOD    1   TIME STEP   15
    PRINT BUDGET
    SAVE HEAD FOR ALL LAYERS
    SAVE BUDGET
 UBDSV1 SAVING "         STORAGE" ON UNIT 740 AT TIME STEP    15, STRESS PERIOD   1
 UBDSV2 SAVING "   CONSTANT HEAD" ON UNIT 740 AT TIME STEP    15, STRESS PERIOD   1
 UBDSV1 SAVING "FLOW RIGHT FACE " ON UNIT 740 AT TIME STEP    15, STRESS PERIOD   1
 UBDSV1 SAVING "FLOW FRONT FACE " ON UNIT 740 AT TIME STEP    15, STRESS PERIOD   1
 UBDSV4 SAVING "           WELLS" ON UNIT 740 AT TIME STEP    15, STRESS PERIOD   1
 UBDSV3 SAVING "              ET" ON UNIT 740 AT TIME STEP    15, STRESS PERIOD   1
 UBDSV4 SAVING " HEAD DEP BOUNDS" ON UNIT 740 AT TIME STEP    15, STRESS PERIOD   1
 UBDSV3 SAVING "        RECHARGE" ON UNIT 740 AT TIME STEP    15, STRESS PERIOD   1
 UBDSV4 SAVING "  STREAM LEAKAGE" ON UNIT 740 AT TIME STEP    15, STRESS PERIOD   1
 UBDSV2 SAVING "STREAMFLOW OUT  " ON UNIT 741 AT TIME STEP    15, STRESS PERIOD   1




 HEAD WILL BE SAVED ON UNIT  730 AT END OF TIME STEP   15, STRESS PERIOD    1
1
  VOLUMETRIC BUDGET FOR ENTIRE MODEL AT END OF TIME STEP   15, STRESS PERIOD   1
  ------------------------------------------------------------------------------

     CUMULATIVE VOLUMES      L**3       RATES FOR THIS TIME STEP      L**3/T
     ------------------                 ------------------------

           IN:                                      IN:
           ---                                      ---
             STORAGE =  3427199488.0000               STORAGE =          68.1618
       CONSTANT HEAD =           0.0000         CONSTANT HEAD =           0.0000
               WELLS =           0.0000                 WELLS =           0.0000
                  ET =           0.0000                    ET =           0.0000
     HEAD DEP BOUNDS =     9428321.0000       HEAD DEP BOUNDS =           0.2189
            RECHARGE =    77262336.0000              RECHARGE =           1.7937
      STREAM LEAKAGE =  2121957632.0000        STREAM LEAKAGE =          53.0912

            TOTAL IN =  5635847680.0000              TOTAL IN =         123.2658

          OUT:                                     OUT:
          ----                                     ----
             STORAGE =    77050912.0000               STORAGE =           0.1296
       CONSTANT HEAD =           0.0000         CONSTANT HEAD =           0.0000
               WELLS =  4307308544.0000                 WELLS =         100.0000
                  ET =  1062905216.0000                    ET =          20.7087
     HEAD DEP BOUNDS =    12668324.0000       HEAD DEP BOUNDS =           0.2939
            RECHARGE =           0.0000              RECHARGE =           0.0000
      STREAM LEAKAGE =   175915632.0000        STREAM LEAKAGE =           2.1335

           TOTAL OUT =  5635848704.0000             TOTAL OUT =         123.2658

            IN - OUT =       -1024.0000              IN - OUT =      -7.6294E-06

 PERCENT DISCREPANCY =          -0.00     PERCENT DISCREPANCY =          -0.00






         TIME SUMMARY AT END OF TIME STEP   15 IN STRESS PERIOD    1
                    SECONDS     MINUTES      HOURS       DAYS        YEARS
                    -----------------------------------------------------------
   TIME STEP LENGTH 5.14816E+06  85803.      1430.0      59.585     0.16314    
 STRESS PERIOD TIME 4.30731E+07 7.17885E+05  11965.      498.53      1.3649    
         TOTAL TIME 4.30731E+07 7.17885E+05  11965.      498.53      1.3649    
1
 
 SOLVING FOR HEAD 

    ------------------------------------------------
       NWT REQUIRED            4 OUTER ITERATIONS 
       AND A TOTAL OF          7 INNER ITERATIONS.
    ------------------------------------------------

 OUTPUT CONTROL FOR STRESS PERIOD    1   TIME STEP   16
    PRINT BUDGET
    SAVE HEAD FOR ALL LAYERS
    SAVE BUDGET
 UBDSV1 SAVING "         STORAGE" ON UNIT 740 AT TIME STEP    16, STRESS PERIOD   1
 UBDSV2 SAVING "   CONSTANT HEAD" ON UNIT 740 AT TIME STEP    16, STRESS PERIOD   1
 UBDSV1 SAVING "FLOW RIGHT FACE " ON UNIT 740 AT TIME STEP    16, STRESS PERIOD   1
 UBDSV1 SAVING "FLOW FRONT FACE " ON UNIT 740 AT TIME STEP    16, STRESS PERIOD   1
 UBDSV4 SAVING "           WELLS" ON UNIT 740 AT TIME STEP    16, STRESS PERIOD   1
 UBDSV3 SAVING "              ET" ON UNIT 740 AT TIME STEP    16, STRESS PERIOD   1
 UBDSV4 SAVING " HEAD DEP BOUNDS" ON UNIT 740 AT TIME STEP    16, STRESS PERIOD   1
 UBDSV3 SAVING "        RECHARGE" ON UNIT 740 AT TIME STEP    16, STRESS PERIOD   1
 UBDSV4 SAVING "  STREAM LEAKAGE" ON UNIT 740 AT TIME STEP    16, STRESS PERIOD   1
 UBDSV2 SAVING "STREAMFLOW OUT  " ON UNIT 741 AT TIME STEP    16, STRESS PERIOD   1




 HEAD WILL BE SAVED ON UNIT  730 AT END OF TIME STEP   16, STRESS PERIOD    1
1
  VOLUMETRIC BUDGET FOR ENTIRE MODEL AT END OF TIME STEP   16, STRESS PERIOD   1
  ------------------------------------------------------------------------------

     CUMULATIVE VOLUMES      L**3       RATES FOR THIS TIME STEP      L**3/T
     ------------------                 ------------------------

           IN:                                      IN:
           ---                                      ---
             STORAGE =  3802484736.0000               STORAGE =          66.2699
       CONSTANT HEAD =           0.0000         CONSTANT HEAD =           0.0000
               WELLS =           0.0000                 WELLS =           0.0000
                  ET =           0.0000                    ET =           0.0000
     HEAD DEP BOUNDS =    10668333.0000       HEAD DEP BOUNDS =           0.2190
            RECHARGE =    87420312.0000              RECHARGE =           1.7937
      STREAM LEAKAGE =  2429170176.0000        STREAM LEAKAGE =          54.2492

            TOTAL IN =  6329743360.0000              TOTAL IN =         122.5319

          OUT:                                     OUT:
          ----                                     ----
             STORAGE =    77520640.0000               STORAGE =       8.2947E-02
       CONSTANT HEAD =           0.0000         CONSTANT HEAD =           0.0000
               WELLS =  4873606656.0000                 WELLS =         100.0000
                  ET =  1177591552.0000                    ET =          20.2519
[...]
      STREAM LEAKAGE =  4272342528.0000        STREAM LEAKAGE =           7.6456

           TOTAL OUT =240930111488.0000             TOTAL OUT =          45.1750

            IN - OUT =     -180224.0000              IN - OUT =       2.2888E-05

 PERCENT DISCREPANCY =          -0.00     PERCENT DISCREPANCY =           0.00






         TIME SUMMARY AT END OF TIME STEP   45 IN STRESS PERIOD    2
                    SECONDS     MINUTES      HOURS       DAYS        YEARS
                    -----------------------------------------------------------
   TIME STEP LENGTH 8.98325E+07 1.49721E+06  24953.      1039.7      2.8466    
 STRESS PERIOD TIME 9.74600E+08 1.62433E+07 2.70722E+05  11280.      30.883    
         TOTAL TIME 2.55248E+09 4.25413E+07 7.09022E+05  29543.      80.883    
1
 
 SOLVING FOR HEAD 

    ------------------------------------------------
       NWT REQUIRED            5 OUTER ITERATIONS 
       AND A TOTAL OF          9 INNER ITERATIONS.
    ------------------------------------------------

 OUTPUT CONTROL FOR STRESS PERIOD    2   TIME STEP   46
    PRINT BUDGET
    SAVE HEAD FOR ALL LAYERS
    SAVE BUDGET
 UBDSV1 SAVING "         STORAGE" ON UNIT 740 AT TIME STEP    46, STRESS PERIOD   2
 UBDSV2 SAVING "   CONSTANT HEAD" ON UNIT 740 AT TIME STEP    46, STRESS PERIOD   2
 UBDSV1 SAVING "FLOW RIGHT FACE " ON UNIT 740 AT TIME STEP    46, STRESS PERIOD   2
 UBDSV1 SAVING "FLOW FRONT FACE " ON UNIT 740 AT TIME STEP    46, STRESS PERIOD   2
 UBDSV4 SAVING "           WELLS" ON UNIT 740 AT TIME STEP    46, STRESS PERIOD   2
 UBDSV3 SAVING "              ET" ON UNIT 740 AT TIME STEP    46, STRESS PERIOD   2
 UBDSV4 SAVING " HEAD DEP BOUNDS" ON UNIT 740 AT TIME STEP    46, STRESS PERIOD   2
 UBDSV3 SAVING "        RECHARGE" ON UNIT 740 AT TIME STEP    46, STRESS PERIOD   2
 UBDSV4 SAVING "  STREAM LEAKAGE" ON UNIT 740 AT TIME STEP    46, STRESS PERIOD   2
 UBDSV2 SAVING "STREAMFLOW OUT  " ON UNIT 741 AT TIME STEP    46, STRESS PERIOD   2




 HEAD WILL BE SAVED ON UNIT  730 AT END OF TIME STEP   46, STRESS PERIOD    2
1
  VOLUMETRIC BUDGET FOR ENTIRE MODEL AT END OF TIME STEP   46, STRESS PERIOD   2
  ------------------------------------------------------------------------------

     CUMULATIVE VOLUMES      L**3       RATES FOR THIS TIME STEP      L**3/T
     ------------------                 ------------------------

           IN:                                      IN:
           ---                                      ---
             STORAGE = 31785674752.0000               STORAGE =           0.0000
       CONSTANT HEAD =           0.0000         CONSTANT HEAD =           0.0000
               WELLS =           0.0000                 WELLS =           0.0000
                  ET =           0.0000                    ET =           0.0000
     HEAD DEP BOUNDS =   584303360.0000       HEAD DEP BOUNDS =           0.2191
            RECHARGE =  2830322432.0000              RECHARGE =           0.0000
      STREAM LEAKAGE =210139774976.0000        STREAM LEAKAGE =          44.4109

            TOTAL IN =245340078080.0000              TOTAL IN =          44.6300

          OUT:                                     OUT:
          ----                                     ----
             STORAGE = 30734483456.0000               STORAGE =           1.6741
       CONSTANT HEAD =           0.0000         CONSTANT HEAD =           0.0000
               WELLS =157788012544.0000                 WELLS =           0.0000
                  ET = 51034656768.0000                    ET =          34.9420
     HEAD DEP BOUNDS =   748325952.0000       HEAD DEP BOUNDS =           0.2982
            RECHARGE =           0.0000              RECHARGE =           0.0000
      STREAM LEAKAGE =  5034769920.0000        STREAM LEAKAGE =           7.7156

           TOTAL OUT =245340241920.0000             TOTAL OUT =          44.6299

            IN - OUT =     -163840.0000              IN - OUT =       7.2479E-05

 PERCENT DISCREPANCY =          -0.00     PERCENT DISCREPANCY =           0.00






         TIME SUMMARY AT END OF TIME STEP   46 IN STRESS PERIOD    2
                    SECONDS     MINUTES      HOURS       DAYS        YEARS
                    -----------------------------------------------------------
   TIME STEP LENGTH 9.88157E+07 1.64693E+06  27449.      1143.7      3.1313    
 STRESS PERIOD TIME 1.07342E+09 1.78903E+07 2.98171E+05  12424.      34.014    
         TOTAL TIME 2.65130E+09 4.41883E+07 7.36471E+05  30686.      84.014    
1
 
 SOLVING FOR HEAD 

    ------------------------------------------------
       NWT REQUIRED            5 OUTER ITERATIONS 
       AND A TOTAL OF          8 INNER ITERATIONS.
    ------------------------------------------------

 OUTPUT CONTROL FOR STRESS PERIOD    2   TIME STEP   47
    PRINT BUDGET
    SAVE HEAD FOR ALL LAYERS
    SAVE BUDGET
 UBDSV1 SAVING "         STORAGE" ON UNIT 740 AT TIME STEP    47, STRESS PERIOD   2
 UBDSV2 SAVING "   CONSTANT HEAD" ON UNIT 740 AT TIME STEP    47, STRESS PERIOD   2
 UBDSV1 SAVING "FLOW RIGHT FACE " ON UNIT 740 AT TIME STEP    47, STRESS PERIOD   2
 UBDSV1 SAVING "FLOW FRONT FACE " ON UNIT 740 AT TIME STEP    47, STRESS PERIOD   2
 UBDSV4 SAVING "           WELLS" ON UNIT 740 AT TIME STEP    47, STRESS PERIOD   2
 UBDSV3 SAVING "              ET" ON UNIT 740 AT TIME STEP    47, STRESS PERIOD   2
 UBDSV4 SAVING " HEAD DEP BOUNDS" ON UNIT 740 AT TIME STEP    47, STRESS PERIOD   2
 UBDSV3 SAVING "        RECHARGE" ON UNIT 740 AT TIME STEP    47, STRESS PERIOD   2
 UBDSV4 SAVING "  STREAM LEAKAGE" ON UNIT 740 AT TIME STEP    47, STRESS PERIOD   2
 UBDSV2 SAVING "STREAMFLOW OUT  " ON UNIT 741 AT TIME STEP    47, STRESS PERIOD   2




 HEAD WILL BE SAVED ON UNIT  730 AT END OF TIME STEP   47, STRESS PERIOD    2
1
  VOLUMETRIC BUDGET FOR ENTIRE MODEL AT END OF TIME STEP   47, STRESS PERIOD   2
  ------------------------------------------------------------------------------

     CUMULATIVE VOLUMES      L**3       RATES FOR THIS TIME STEP      L**3/T
     ------------------                 ------------------------

           IN:                                      IN:
           ---                                      ---
             STORAGE = 31785674752.0000               STORAGE =           0.0000
       CONSTANT HEAD =           0.0000         CONSTANT HEAD =           0.0000
               WELLS =           0.0000                 WELLS =           0.0000
                  ET =           0.0000                    ET =           0.0000
     HEAD DEP BOUNDS =   608114880.0000       HEAD DEP BOUNDS =           0.2191
            RECHARGE =  2830322432.0000              RECHARGE =           0.0000
      STREAM LEAKAGE =214935158784.0000        STREAM LEAKAGE =          44.1168

            TOTAL IN =250159267840.0000              TOTAL IN =          44.3359

          OUT:                                     OUT:
          ----                                     ----
             STORAGE = 30838077440.0000               STORAGE =           0.9531
       CONSTANT HEAD =           0.0000         CONSTANT HEAD =           0.0000
               WELLS =157788012544.0000                 WELLS =           0.0000
                  ET = 54875168768.0000                    ET =          35.3322
     HEAD DEP BOUNDS =   780749760.0000       HEAD DEP BOUNDS =           0.2983
            RECHARGE =           0.0000              RECHARGE =           0.0000
      STREAM LEAKAGE =  5877428224.0000        STREAM LEAKAGE =           7.7523

           TOTAL OUT =250159448064.0000             TOTAL OUT =          44.3359

            IN - OUT =     -180224.0000              IN - OUT =       2.2888E-05

 PERCENT DISCREPANCY =          -0.00     PERCENT DISCREPANCY =           0.00






         TIME SUMMARY AT END OF TIME STEP   47 IN STRESS PERIOD    2
                    SECONDS     MINUTES      HOURS       DAYS        YEARS
                    -----------------------------------------------------------
   TIME STEP LENGTH 1.08697E+08 1.81162E+06  30194.      1258.1      3.4444    
 STRESS PERIOD TIME 1.18211E+09 1.97019E+07 3.28365E+05  13682.      37.459    
         TOTAL TIME 2.75999E+09 4.59999E+07 7.66665E+05  31944.      87.459    
1
 
 SOLVING FOR HEAD 

    ------------------------------------------------
       NWT REQUIRED            5 OUTER ITERATIONS 
       AND A TOTAL OF          8 INNER ITERATIONS.
    ------------------------------------------------

 OUTPUT CONTROL FOR STRESS PERIOD    2   TIME STEP   48
    PRINT BUDGET
    SAVE HEAD FOR ALL LAYERS
    SAVE BUDGET
 UBDSV1 SAVING "         STORAGE" ON UNIT 740 AT TIME STEP    48, STRESS PERIOD   2
 UBDSV2 SAVING "   CONSTANT HEAD" ON UNIT 740 AT TIME STEP    48, STRESS PERIOD   2
 UBDSV1 SAVING "FLOW RIGHT FACE " ON UNIT 740 AT TIME STEP    48, STRESS PERIOD   2
 UBDSV1 SAVING "FLOW FRONT FACE " ON UNIT 740 AT TIME STEP    48, STRESS PERIOD   2
 UBDSV4 SAVING "           WELLS" ON UNIT 740 AT TIME STEP    48, STRESS PERIOD   2
 UBDSV3 SAVING "              ET" ON UNIT 740 AT TIME STEP    48, STRESS PERIOD   2
 UBDSV4 SAVING " HEAD DEP BOUNDS" ON UNIT 740 AT TIME STEP    48, STRESS PERIOD   2
 UBDSV3 SAVING "        RECHARGE" ON UNIT 740 AT TIME STEP    48, STRESS PERIOD   2
 UBDSV4 SAVING "  STREAM LEAKAGE" ON UNIT 740 AT TIME STEP    48, STRESS PERIOD   2
 UBDSV2 SAVING "STREAMFLOW OUT  " ON UNIT 741 AT TIME STEP    48, STRESS PERIOD   2




 HEAD WILL BE SAVED ON UNIT  730 AT END OF TIME STEP   48, STRESS PERIOD    2
1
  VOLUMETRIC BUDGET FOR ENTIRE MODEL AT END OF TIME STEP   48, STRESS PERIOD   2
  ------------------------------------------------------------------------------

     CUMULATIVE VOLUMES      L**3       RATES FOR THIS TIME STEP      L**3/T
     ------------------                 ------------------------

           IN:                                      IN:
           ---                                      ---
             STORAGE = 31785674752.0000               STORAGE =           0.0000
       CONSTANT HEAD =           0.0000         CONSTANT HEAD =           0.0000
               WELLS =           0.0000                 WELLS =           0.0000
                  ET =           0.0000                    ET =           0.0000
     HEAD DEP BOUNDS =   634307008.0000       HEAD DEP BOUNDS =           0.2191
            RECHARGE =  2830322432.0000              RECHARGE =           0.0000
      STREAM LEAKAGE =220191932416.0000        STREAM LEAKAGE =          43.9651

            TOTAL IN =255442239488.0000              TOTAL IN =          44.1842

          OUT:                                     OUT:
          ----                                     ----
             STORAGE = 30903623680.0000               STORAGE =           0.5482
       CONSTANT HEAD =           0.0000         CONSTANT HEAD =           0.0000
               WELLS =157788012544.0000                 WELLS =           0.0000
                  ET = 59127091200.0000                    ET =          35.5610
     HEAD DEP BOUNDS =   816421952.0000       HEAD DEP BOUNDS =           0.2983
            RECHARGE =           0.0000              RECHARGE =           0.0000
      STREAM LEAKAGE =  6807252992.0000        STREAM LEAKAGE =           7.7766

           TOTAL OUT =255442403328.0000             TOTAL OUT =          44.1841

            IN - OUT =     -163840.0000              IN - OUT =       2.6703E-05

 PERCENT DISCREPANCY =          -0.00     PERCENT DISCREPANCY =           0.00






         TIME SUMMARY AT END OF TIME STEP   48 IN STRESS PERIOD    2
                    SECONDS     MINUTES      HOURS       DAYS        YEARS
                    -----------------------------------------------------------
   TIME STEP LENGTH 1.19567E+08 1.99278E+06  33213.      1383.9      3.7889    
 STRESS PERIOD TIME 1.30168E+09 2.16947E+07 3.61578E+05  15066.      41.248    
         TOTAL TIME 2.87956E+09 4.79927E+07 7.99878E+05  33328.      91.248    
1
 
 SOLVING FOR HEAD 

    ------------------------------------------------
       NWT REQUIRED            5 OUTER ITERATIONS 
       AND A TOTAL OF          7 INNER ITERATIONS.
    ------------------------------------------------

 OUTPUT CONTROL FOR STRESS PERIOD    2   TIME STEP   49
    PRINT BUDGET
    SAVE HEAD FOR ALL LAYERS
    SAVE BUDGET
 UBDSV1 SAVING "         STORAGE" ON UNIT 740 AT TIME STEP    49, STRESS PERIOD   2
 UBDSV2 SAVING "   CONSTANT HEAD" ON UNIT 740 AT TIME STEP    49, STRESS PERIOD   2
 UBDSV1 SAVING "FLOW RIGHT FACE " ON UNIT 740 AT TIME STEP    49, STRESS PERIOD   2
 UBDSV1 SAVING "FLOW FRONT FACE " ON UNIT 740 AT TIME STEP    49, STRESS PERIOD   2
 UBDSV4 SAVING "           WELLS" ON UNIT 740 AT TIME STEP    49, STRESS PERIOD   2
 UBDSV3 SAVING "              ET" ON UNIT 740 AT TIME STEP    49, STRESS PERIOD   2
 UBDSV4 SAVING " HEAD DEP BOUNDS" ON UNIT 740 AT TIME STEP    49, STRESS PERIOD   2
 UBDSV3 SAVING "        RECHARGE" ON UNIT 740 AT TIME STEP    49, STRESS PERIOD   2
 UBDSV4 SAVING "  STREAM LEAKAGE" ON UNIT 740 AT TIME STEP    49, STRESS PERIOD   2
 UBDSV2 SAVING "STREAMFLOW OUT  " ON UNIT 741 AT TIME STEP    49, STRESS PERIOD   2




 HEAD WILL BE SAVED ON UNIT  730 AT END OF TIME STEP   49, STRESS PERIOD    2
1
  VOLUMETRIC BUDGET FOR ENTIRE MODEL AT END OF TIME STEP   49, STRESS PERIOD   2
  ------------------------------------------------------------------------------

     CUMULATIVE VOLUMES      L**3       RATES FOR THIS TIME STEP      L**3/T
     ------------------                 ------------------------

           IN:                                      IN:
           ---                                      ---
             STORAGE = 31785674752.0000               STORAGE =           0.0000
       CONSTANT HEAD =           0.0000         CONSTANT HEAD =           0.0000
               WELLS =           0.0000                 WELLS =           0.0000
                  ET =           0.0000                    ET =           0.0000
     HEAD DEP BOUNDS =   663118016.0000       HEAD DEP BOUNDS =           0.2191
            RECHARGE =  2830322432.0000              RECHARGE =           0.0000
      STREAM LEAKAGE =225963835392.0000        STREAM LEAKAGE =          43.8849

            TOTAL IN =261242945536.0000              TOTAL IN =          44.1039

          OUT:                                     OUT:
          ----                                     ----
             STORAGE = 30944681984.0000               STORAGE =           0.3122
       CONSTANT HEAD =           0.0000         CONSTANT HEAD =           0.0000
               WELLS =157788012544.0000                 WELLS =           0.0000
                  ET = 63822434304.0000                    ET =          35.6996
     HEAD DEP BOUNDS =   855664960.0000       HEAD DEP BOUNDS =           0.2984
            RECHARGE =           0.0000              RECHARGE =           0.0000
      STREAM LEAKAGE =  7832328192.0000        STREAM LEAKAGE =           7.7938

           TOTAL OUT =261243125760.0000             TOTAL OUT =          44.1040

            IN - OUT =     -180224.0000              IN - OUT =      -4.1962E-05

 PERCENT DISCREPANCY =          -0.00     PERCENT DISCREPANCY =          -0.00






         TIME SUMMARY AT END OF TIME STEP   49 IN STRESS PERIOD    2
                    SECONDS     MINUTES      HOURS       DAYS        YEARS
                    -----------------------------------------------------------
   TIME STEP LENGTH 1.31524E+08 2.19206E+06  36534.      1522.3      4.1677    
 STRESS PERIOD TIME 1.43320E+09 2.38867E+07 3.98112E+05  16588.      45.415    
         TOTAL TIME 3.01108E+09 5.01847E+07 8.36412E+05  34851.      95.415    
1
 
 SOLVING FOR HEAD 

    ------------------------------------------------
       NWT REQUIRED            4 OUTER ITERATIONS 
       AND A TOTAL OF          6 INNER ITERATIONS.
    ------------------------------------------------

 OUTPUT CONTROL FOR STRESS PERIOD    2   TIME STEP   50
    PRINT BUDGET
    SAVE HEAD FOR ALL LAYERS
    SAVE BUDGET
 UBDSV1 SAVING "         STORAGE" ON UNIT 740 AT TIME STEP    50, STRESS PERIOD   2
 UBDSV2 SAVING "   CONSTANT HEAD" ON UNIT 740 AT TIME STEP    50, STRESS PERIOD   2
 UBDSV1 SAVING "FLOW RIGHT FACE " ON UNIT 740 AT TIME STEP    50, STRESS PERIOD   2
 UBDSV1 SAVING "FLOW FRONT FACE " ON UNIT 740 AT TIME STEP    50, STRESS PERIOD   2
 UBDSV4 SAVING "           WELLS" ON UNIT 740 AT TIME STEP    50, STRESS PERIOD   2
 UBDSV3 SAVING "              ET" ON UNIT 740 AT TIME STEP    50, STRESS PERIOD   2
 UBDSV4 SAVING " HEAD DEP BOUNDS" ON UNIT 740 AT TIME STEP    50, STRESS PERIOD   2
 UBDSV3 SAVING "        RECHARGE" ON UNIT 740 AT TIME STEP    50, STRESS PERIOD   2
 UBDSV4 SAVING "  STREAM LEAKAGE" ON UNIT 740 AT TIME STEP    50, STRESS PERIOD   2
 UBDSV2 SAVING "STREAMFLOW OUT  " ON UNIT 741 AT TIME STEP    50, STRESS PERIOD   2




 HEAD WILL BE SAVED ON UNIT  730 AT END OF TIME STEP   50, STRESS PERIOD    2
1
  VOLUMETRIC BUDGET FOR ENTIRE MODEL AT END OF TIME STEP   50, STRESS PERIOD   2
  ------------------------------------------------------------------------------

     CUMULATIVE VOLUMES      L**3       RATES FOR THIS TIME STEP      L**3/T
     ------------------                 ------------------------

           IN:                                      IN:
           ---                                      ---
             STORAGE = 31785674752.0000               STORAGE =           0.0000
       CONSTANT HEAD =           0.0000         CONSTANT HEAD =           0.0000
               WELLS =           0.0000                 WELLS =           0.0000
                  ET =           0.0000                    ET =           0.0000
     HEAD DEP BOUNDS =   694809984.0000       HEAD DEP BOUNDS =           0.2191
            RECHARGE =  2830322432.0000              RECHARGE =           0.0000
      STREAM LEAKAGE =232306655232.0000        STREAM LEAKAGE =          43.8415

            TOTAL IN =267617468416.0000              TOTAL IN =          44.0606

          OUT:                                     OUT:
          ----                                     ----
             STORAGE = 30969544704.0000               STORAGE =           0.1718
       CONSTANT HEAD =           0.0000         CONSTANT HEAD =           0.0000
               WELLS =157788012544.0000                 WELLS =           0.0000
                  ET = 68999962624.0000                    ET =          35.7870
     HEAD DEP BOUNDS =   898834432.0000       HEAD DEP BOUNDS =           0.2984
            RECHARGE =           0.0000              RECHARGE =           0.0000
      STREAM LEAKAGE =  8961267712.0000        STREAM LEAKAGE =           7.8032

           TOTAL OUT =267617599488.0000             TOTAL OUT =          44.0605

            IN - OUT =     -131072.0000              IN - OUT =       8.7738E-05

 PERCENT DISCREPANCY =          -0.00     PERCENT DISCREPANCY =           0.00






         TIME SUMMARY AT END OF TIME STEP   50 IN STRESS PERIOD    2
                    SECONDS     MINUTES      HOURS       DAYS        YEARS
                    -----------------------------------------------------------
   TIME STEP LENGTH 1.44676E+08 2.41127E+06  40188.      1674.5      4.5845    
 STRESS PERIOD TIME 1.57788E+09 2.62980E+07 4.38300E+05  18263.      50.000    
         TOTAL TIME 3.15576E+09 5.25960E+07 8.76600E+05  36525.     100.000    
1

 Run end date and time (yyyy/mm/dd hh:mm:ss): 2024/05/01 20:36:01
 Elapsed run time:  2.027 Seconds

