                                  MODFLOW-2000
      U.S. GEOLOGICAL SURVEY MODULAR FINITE-DIFFERENCE GROUND-WATER FLOW MODEL
                           VERSION 1.19.01 03/25/2010


 This model run combines GLOBAL and LIST output into this single file.

 GLOBAL LISTING FILE: "SFR2_GMS.out"
                         UNIT  702

 OPENING "SFR2_GMS.hed"
 FILE TYPE:DATA(BINARY)   UNIT  730   STATUS:UNKNOWN
 FORMAT:BINARY                 ACCESS:SEQUENTIAL          

 OPENING "SFR2_GMS.ccf"
 FILE TYPE:DATA(BINARY)   UNIT  740   STATUS:UNKNOWN
 FORMAT:BINARY                 ACCESS:SEQUENTIAL          

 OPENING "SFR2_GMS.ccf2"
 FILE TYPE:DATA(BINARY)   UNIT  741   STATUS:UNKNOWN
 FORMAT:BINARY                 ACCESS:SEQUENTIAL          

 OPENING "SFR2_GMS_stream_gage_1.gag"
 FILE TYPE:DATA   UNIT   83   STATUS:UNKNOWN
 FORMAT:FORMATTED              ACCESS:SEQUENTIAL          

 OPENING "SFR2_GMS_stream_gage_2.gag"
 FILE TYPE:DATA   UNIT   84   STATUS:UNKNOWN
 FORMAT:FORMATTED              ACCESS:SEQUENTIAL          

 OPENING "SFR2_GMS_stream_gage_3.gag"
 FILE TYPE:DATA   UNIT   85   STATUS:UNKNOWN
 FORMAT:FORMATTED              ACCESS:SEQUENTIAL          

 OPENING "SFR2_GMS_stream_gage_4.gag"
 FILE TYPE:DATA   UNIT   86   STATUS:UNKNOWN
 FORMAT:FORMATTED              ACCESS:SEQUENTIAL          

 OPENING "SFR2_GMS_stream_gage_5.gag"
 FILE TYPE:DATA   UNIT   87   STATUS:UNKNOWN
 FORMAT:FORMATTED              ACCESS:SEQUENTIAL          

 OPENING "SFR2_GMS_stream_gage_6.gag"
 FILE TYPE:DATA   UNIT   88   STATUS:UNKNOWN
 FORMAT:FORMATTED              ACCESS:SEQUENTIAL          

 OPENING "SFR2_GMS_stream_gage_7.gag"
 FILE TYPE:DATA   UNIT   89   STATUS:UNKNOWN
 FORMAT:FORMATTED              ACCESS:SEQUENTIAL          

 OPENING "SFR2_GMS_stream_gage_8.gag"
 FILE TYPE:DATA   UNIT   90   STATUS:UNKNOWN
 FORMAT:FORMATTED              ACCESS:SEQUENTIAL          

 OPENING "SFR2_GMS_stream_gage_9.gag"
 FILE TYPE:DATA   UNIT   91   STATUS:UNKNOWN
 FORMAT:FORMATTED              ACCESS:SEQUENTIAL          

 FILE TYPE:ASP: FILE = SFR2_GMS.asp
#                                                                                                                                                                                                       
# Global Input Files                                                                                                                                                                                    

 OPENING "SFR2_GMS.dis"
 FILE TYPE:DIS   UNIT  719   STATUS:OLD    
 FORMAT:FORMATTED              ACCESS:SEQUENTIAL          
#                                                                                                                                                                                                       
# Flow Process Input Files                                                                                                                                                                              

 OPENING "SFR2_GMS.ba6"
 FILE TYPE:BAS6   UNIT  703   STATUS:OLD    
 FORMAT:FORMATTED              ACCESS:SEQUENTIAL          

 OPENING "SFR2_GMS.lpf"
 FILE TYPE:LPF   UNIT  704   STATUS:OLD    
 FORMAT:FORMATTED              ACCESS:SEQUENTIAL          

 OPENING "SFR2_GMS.oc"
 FILE TYPE:OC   UNIT  715   STATUS:OLD    
 FORMAT:FORMATTED              ACCESS:SEQUENTIAL          

 OPENING "SFR2_GMS.rch"
 FILE TYPE:RCH   UNIT  716   STATUS:OLD    
 FORMAT:FORMATTED              ACCESS:SEQUENTIAL          

 OPENING "SFR2_GMS.wel"
 FILE TYPE:WEL   UNIT  709   STATUS:OLD    
 FORMAT:FORMATTED              ACCESS:SEQUENTIAL          

 OPENING "SFR2_GMS.ghb"
 FILE TYPE:GHB   UNIT  711   STATUS:OLD    
 FORMAT:FORMATTED              ACCESS:SEQUENTIAL          

 OPENING "SFR2_GMS.evt"
 FILE TYPE:EVT   UNIT  712   STATUS:OLD    
 FORMAT:FORMATTED              ACCESS:SEQUENTIAL          

 OPENING "SFR2_GMS.sfr2"
 FILE TYPE:SFR   UNIT  724   STATUS:OLD    
 FORMAT:FORMATTED              ACCESS:SEQUENTIAL          

 OPENING "SFR2_GMS.gag"
 FILE TYPE:GAGE   UNIT  723   STATUS:OLD    
 FORMAT:FORMATTED              ACCESS:SEQUENTIAL          

 OPENING "SFR2_GMS.sip"
 FILE TYPE:SIP   UNIT  714   STATUS:OLD    
 FORMAT:FORMATTED              ACCESS:SEQUENTIAL          

 THE FREE FORMAT OPTION HAS BEEN SELECTED

 DISCRETIZATION INPUT DATA READ FROM UNIT  719
 # MF2K DISCRETIZATION FILE
 #
 #
 # NLAY NROW NCOL NPER TIMEUNITS LENUNITS
    1 LAYERS        15 ROWS        10 COLUMNS
    2 STRESS PERIOD(S) IN SIMULATION
 MODEL TIME UNIT IS SECONDS
 MODEL LENGTH UNIT IS FEET
 THE GROUND-WATER TRANSPORT PROCESS IS INACTIVE

 THE OBSERVATION PROCESS IS INACTIVE
 THE SENSITIVITY PROCESS IS INACTIVE
 THE PARAMETER-ESTIMATION PROCESS IS INACTIVE

 MODE: FORWARD

  Confining bed flag for each layer:
   0

       1375  ELEMENTS OF GX ARRAY USED OUT OF       1375
        150  ELEMENTS OF GZ ARRAY USED OUT OF        150
        150  ELEMENTS OF IG ARRAY USED OUT OF        150

 -------------------------------------------------------------------------------

 VARIABLES READ FROM ASP INPUT FILE:-

 NOSTOP = 0          : CEASE EXECUTION IF MODFLOW FAILS TO CONVERGE.
 HYDRYBOT = 0        : ASSIGN HDRY TO HEAD IN DRY CELL.
 MINTHICK =     0.000: DO NOT PREVENT BASAL CELLS DRYING OUT.
 LIMOP = 0           : NO LIMITATIONS ON OBSERVATION OR SENSITIVITY OUTPUT.

 -------------------------------------------------------------------------------




                               DELR
 READING ON UNIT  719 WITH FORMAT: (FREE)              



                               DELC
 READING ON UNIT  719 WITH FORMAT: (FREE)              


 STRESS PERIOD     LENGTH       TIME STEPS     MULTIPLIER FOR DELT    SS FLAG
 ----------------------------------------------------------------------------
        1        1.5778801E+09     50                    1.100         TR
        2        1.5778801E+09     50                    1.100         TR

 TRANSIENT SIMULATION




 LPF1 -- LAYER PROPERTY FLOW PACKAGE, VERSION 1, 1/11/2000
         INPUT READ FROM UNIT  704
 CELL-BY-CELL FLOWS WILL BE SAVED ON UNIT  740
 HEAD AT CELLS THAT CONVERT TO DRY=   0.0000    
 No named parameters

   LAYER FLAGS:
 LAYER       LAYTYP        LAYAVG         CHANI        LAYVKA        LAYWET
 ---------------------------------------------------------------------------
    1             1             0    -1.000E+00             1             0

   INTERPRETATION OF LAYER FLAGS:
                        INTERBLOCK     HORIZONTAL    DATA IN
         LAYER TYPE   TRANSMISSIVITY   ANISOTROPY   ARRAY VKA   WETTABILITY
 LAYER      (LAYTYP)      (LAYAVG)       (CHANI)      (LAYVKA)      (LAYWET)
 ---------------------------------------------------------------------------
    1   CONVERTIBLE      HARMONIC      VARIABLE    ANISOTROPY  NON-WETTABLE

        750 ELEMENTS IN X ARRAY ARE USED BY LPF
          6 ELEMENTS IN IX ARRAY ARE USED BY LPF

 SIP5 -- STRONGLY IMPLICIT PROCEDURE SOLUTION PACKAGE
                    VERSION 5, 9/1/93 INPUT READ FROM UNIT  714
 MAXIMUM OF 300 ITERATIONS ALLOWED FOR CLOSURE
  5 ITERATION PARAMETERS
        905 ELEMENTS IN X ARRAY ARE USED BY SIP
        900 ELEMENTS IN IX ARRAY ARE USED BY SIP

       1655  ELEMENTS OF X ARRAY USED OUT OF       1655
          0  ELEMENTS OF Z ARRAY USED OUT OF          1
        906  ELEMENTS OF IX ARRAY USED OUT OF        906
          0  ELEMENTS OF XHS ARRAY USED OUT OF          1



          SOLUTION BY THE STRONGLY IMPLICIT PROCEDURE
          -------------------------------------------
 MAXIMUM ITERATIONS ALLOWED FOR CLOSURE =      300
                 ACCELERATION PARAMETER =    0.80000    
      HEAD CHANGE CRITERION FOR CLOSURE =    0.10000E-02
      SIP HEAD CHANGE PRINTOUT INTERVAL =        1

     CALCULATE ITERATION PARAMETERS FROM MODEL CALCULATED WSEED

 WETTING CAPABILITY IS NOT ACTIVE IN ANY LAYER
 
 #TestProblem 1                                                                  
 #Transient Simulation For SFR Package                                           
 THE FREE FORMAT OPTION HAS BEEN SELECTED
    1 LAYERS        15 ROWS        10 COLUMNS
    2 STRESS PERIOD(S) IN SIMULATION

 BAS6 -- BASIC PACKAGE, VERSION 6, 1/11/2000 INPUT READ FROM UNIT  703
          5 ELEMENTS IN IR ARRAY ARE USED BY BAS

 WEL6 -- WELL PACKAGE, VERSION 6, 1/11/2000 INPUT READ FROM UNIT  709
 #GMS_HDF5_01
 No named parameters
 MAXIMUM OF     10 ACTIVE WELLS AT ONE TIME
 CELL-BY-CELL FLOWS WILL BE SAVED ON UNIT  740
 AUXILIARY WELL VARIABLE: IFACE           
 AUXILIARY WELL VARIABLE: QFACT           
 AUXILIARY WELL VARIABLE: CELLGRP         
         70 ELEMENTS IN RX ARRAY ARE USED BY WEL

 EVT6 -- EVAPOTRANSPIRATION PACKAGE, VERSION 6, 12/14/2000
         INPUT READ FROM UNIT  712
 #GMS_HDF5_01
 No named parameters
 OPTION 1 -- EVAPOTRANSPIRATION FROM TOP LAYER
 CELL-BY-CELL FLOWS WILL BE SAVED ON UNIT  740
        450 ELEMENTS IN RX ARRAY ARE USED BY EVT
        150 ELEMENTS IN IR ARRAY ARE USED BY EVT

 GHB6 -- GHB PACKAGE, VERSION 6, 1/11/2000 INPUT READ FROM UNIT  711
 #GMS_HDF5_01
 No named parameters
 MAXIMUM OF      2 ACTIVE GHB CELLS AT ONE TIME
 CELL-BY-CELL FLOWS WILL BE SAVED ON UNIT  740
 AUXILIARY GHB VARIABLE: IFACE           
 AUXILIARY GHB VARIABLE: CONDFACT        
 AUXILIARY GHB VARIABLE: CELLGRP         
         16 ELEMENTS IN RX ARRAY ARE USED BY GHB

 RCH6 -- RECHARGE PACKAGE, VERSION 6, 1/11/2000 INPUT READ FROM UNIT  716
 #GMS_HDF5_01
 No named parameters
 OPTION 3 -- RECHARGE TO HIGHEST ACTIVE NODE IN EACH VERTICAL COLUMN
 CELL-BY-CELL FLOWS WILL BE SAVED ON UNIT  740
        150 ELEMENTS IN RX ARRAY ARE USED BY RCH
        150 ELEMENTS IN IR ARRAY ARE USED BY RCH

 SFR2 -- STREAMFLOW ROUTING PACKAGE, VERSION 2.7, 03/16/2009
         INPUT READ FROM UNIT 724
 #GMS_HDF5_01


 NUMBER OF STREAM NODES IS   50

 NUMBER OF STREAM SEGMENTS IS    8

 NUMBER OF STREAM PARAMETERS IS    0

 NUMBER OF STREAM SEGMENTS DEFINED USING PARAMETERS IS    0

 MAXIMUM ERROR FOR STREAM LEAKAGE RATES IS  1.00E-04

 CONSTANT FOR MANNINGS EQUATION IS  1.4860E+00


 UNSATURATED FLOW BENEATH STREAMS IS INACTIVE 

 FLOW TO AND FROM GROUND WATER FOR EACH STREAM REACH WILL BE SAVED ON UNIT740
       2777 ELEMENTS IN RX ARRAY ARE USED BY SFR2
        620 ELEMENTS IN RZ ARRAY ARE USED BY SFR2
        322 ELEMENTS IN IR ARRAY ARE USED BY SFR2
          3 ELEMENTS IN RX ARRAY ARE USED BY GAGE
         36 ELEMENTS IN IR ARRAY ARE USED BY GAGE

       3716  ELEMENTS OF RX ARRAY USED OUT OF       3716
        620  ELEMENTS OF RZ ARRAY USED OUT OF        620
        663  ELEMENTS OF IR ARRAY USED OUT OF        663
1
 #TestProblem 1                                                                  
 #Transient Simulation For SFR Package                                           

                1           2           3           4           5           6           7           8           9          10
 ............................................................................................................................
   1            1           1           0           0           0           0           0           0           0           0
   2            1           1           1           0           0           1           1           1           0           0
   3            0           1           1           1           1           1           1           1           0           0
   4            1           1           1           1           1           1           1           1           1           0
   5            1           1           1           1           1           1           1           1           1           1
   6            1           1           1           1           1           1           1           1           1           1
   7            1           1           1           1           1           1           1           1           1           0
   8            0           1           1           1           1           1           1           1           1           0
   9            0           1           1           1           1           1           1           1           1           0
  10            0           1           1           1           1           1           1           1           1           1
  11            0           1           1           1           1           1           1           1           1           0
  12            1           1           1           1           1           1           1           1           1           0
  13            1           1           1           1           1           1           1           1           1           0
  14            0           1           1           1           1           1           1           1           1           0
  15            0           0           1           1           1           1           0           0           0           0

 AQUIFER HEAD WILL BE SET TO  6999.0     AT ALL NO-FLOW NODES (IBOUND=0).

 OUTPUT CONTROL IS SPECIFIED ONLY AT TIME STEPS FOR WHICH OUTPUT IS DESIRED
 COMPACT CELL-BY-CELL BUDGET FILES WILL BE WRITTEN
 AUXILIARY DATA WILL BE SAVED IN CELL-BY-CELL BUDGET FILES
 HEAD PRINT FORMAT CODE IS   0    DRAWDOWN PRINT FORMAT CODE IS   0
 HEADS WILL BE SAVED ON UNIT  730    DRAWDOWNS WILL BE SAVED ON UNIT    0


     0 Well parameters


     0 Evapotranspiration parameters


     0 GHB parameters


     0 Recharge parameters


   STREAM NETWORK DESCRIPTION: 

   LAYER    ROW    COL   SEGMENT   REACH     LENGTH
                          NUMBER   NUMBER    IN CELL
   --------------------------------------------------
      1      1      1       1        1    5.6683E+03
      1      1      2       1        2    4.6265E+02
      1      2      2       1        3    6.8632E+03
      1      2      3       1        4    3.2576E+02
      1      3      3       1        5    5.8050E+03
      1      3      4       1        6    4.9981E+03
      1      3      4       2        1    2.7627E+02
      1      3      5       2        2    5.6686E+02
      1      4      5       2        3    6.3470E+03
      1      4      6       2        4    1.3000E+03
      1      5      6       2        5    5.3010E+03
      1      6      6       2        6    5.0160E+03
      1      7      6       2        7    5.0102E+03
      1      8      6       2        8    5.0102E+03
      1      9      6       2        9    1.4400E+02
      1      3      4       3        1    2.2054E+02
      1      3      5       3        2    5.0122E+03
      1      3      6       3        3    5.0106E+03
      1      3      7       3        4    5.0228E+03
      1      4      7       3        5    1.3723E+02
      1      4      8       3        6    5.2226E+03
      1      5      8       3        7    5.0049E+03
      1      6      8       3        8    2.9004E+03
      1     14      9       4        1    5.4001E+03
      1     13      9       4        2    4.0361E+02
      1     13      8       4        3    5.6700E+03
      1     13      7       4        4    4.3518E+03
      1      5     10       5        1    4.9706E+03
      1      5      9       5        2    5.4183E+03
      1      5      8       5        3    9.3123E+02
      1      6      8       5        4    4.4923E+03
      1      6      8       6        1    1.5816E+03
      1      6      7       6        2    8.6881E+02
      1      7      7       6        3    5.5770E+03
      1      8      7       6        4    3.2065E+03
      1      8      6       6        5    3.1746E+03
      1      9      6       6        6    1.6771E+02
      1      9      6       7        1    5.0547E+03
      1     10      6       7        2    1.0537E+03
      1     10      7       7        3    4.4336E+03
      1     11      7       7        4    5.1137E+03
      1     12      7       7        5    5.0196E+03
      1     13      7       7        6    2.0472E+03
      1     13      7       8        1    6.9662E+02
      1     13      6       8        2    5.0480E+03
      1     13      5       8        3    5.0433E+03
      1     13      4       8        4    5.0094E+03
      1     13      3       8        5    5.0033E+03
      1     13      2       8        6    5.1826E+03
      1     13      1       8        7    5.2147E+03






   9 GAGING STATIONS WERE SPECIFIED.
     (Lakes are identified by a negative value of the Lake Number)
     RECORDS WILL BE WRITTEN TO SEPARATE OUTPUT FILES REPRESENTED BY FOLLOWING UNIT NUMBERS:

 Stream Gages:
  GAGE #   SEGMENT   REACH   UNIT   OUTTYPE
       1       1       4      83       4
       2       2       3      84       1
       3       3       5      85       1
       4       4       3      86       1
       5       5       4      87       4
       6       6       5      88       1
       7       7       3      89       4
       8       8       6      90       4
       9       3       1      91       5




1
                            STRESS PERIOD NO.    1, LENGTH =  0.1577880E+10
                            -----------------------------------------------

                              NUMBER OF TIME STEPS =    50

                               MULTIPLIER FOR DELT =     1.100

                            INITIAL TIME STEP SIZE =   1355672.    

 WELL NO.  LAYER   ROW   COL   STRESS RATE         IFACE           QFACT           CELLGRP         
 --------------------------------------------------------------------------------------------------
      1      1      6      4      -10.00           0.000           0.000          -1.000    
      2      1      6      5      -10.00           0.000           0.000          -1.000    
      3      1      7      4      -10.00           0.000           0.000          -1.000    
      4      1      7      5      -10.00           0.000           0.000          -1.000    
      5      1      8      4      -10.00           0.000           0.000          -1.000    
      6      1      8      5      -10.00           0.000           0.000          -1.000    
      7      1      9      4      -10.00           0.000           0.000          -1.000    
      8      1      9      5      -10.00           0.000           0.000          -1.000    
      9      1     10      4      -10.00           0.000           0.000          -1.000    
     10      1     10      5      -10.00           0.000           0.000          -1.000    

     10 WELLS

 BOUND. NO. LAYER   ROW   COL     STAGE      CONDUCTANCE         IFACE           CONDFACT        CELLGRP         
 ----------------------------------------------------------------------------------------------------------------
      1      1     13      1       988.0          0.3800E-01       0.000           0.000          -1.000    
      2      1     14      9       1045.          0.3800E-01       0.000           0.000          -1.000    

      2 GHB CELLS



 CLASSIFICATION & COUNT OF STREAM SEGMENTS BASED ON SOURCE OF INFLOW:

                HEADWATER     DIVERSION     RECEIVES TRIBUTARY FLOW
                ---------     ---------     -----------------------
                     3              1               4

                     INPUT DATA FOR EACH STREAM SEGMENT
 ---------------------------------------------------------------------------------------------

 SEGMENT    SEG.     INFLOW   OVERLAND   STREAM    STREAM   ICALC  OUTFLOW  DIVERSION PRIORITY
    NO.    LENGTH     RATE     RUNOFF      ET       PPT.    METH.  TO SEG.  FROM SEG.    NO.

      1  2.412E+04 2.500E+01 0.000E+00 0.000E+00 0.000E+00    4        2        0        0
      2  2.897E+04 0.000E+00 0.000E+00 0.000E+00 0.000E+00    1        7        0        0
      3  2.853E+04 1.000E+01 0.000E+00 0.000E+00 0.000E+00    0        6        1        0
      4  1.583E+04 1.500E+02 0.000E+00 0.000E+00 0.000E+00    2        8        0        0
      5  1.581E+04 1.000E+01 0.000E+00 0.000E+00 0.000E+00    1        6        0        0
      6  1.458E+04 0.000E+00 0.000E+00 0.000E+00 0.000E+00    3        7        0        0
      7  2.272E+04 0.000E+00 0.000E+00 0.000E+00 0.000E+00    1        8        0        0
      8  3.120E+04 0.000E+00 0.000E+00 0.000E+00 0.000E+00    2        0        0        0


         STREAMBED PROPERTIES AND STREAM DIMENSIONS

 SEGMENT     BED HYD. COND.      BED THICKNESS     ELEV.-TOP OF BED     WIDTH OF STREAM     DEPTH OF STREAM    STREAM ROUGHNESS
    No.     UPPER     LOWER     UPPER     LOWER     UPPER     LOWER     UPPER     LOWER     UPPER     LOWER   CHANNEL      BANK

     1  1.109E-05 1.109E-05 5.062E+00 5.062E+00 1.095E+03 1.075E+03
     2  5.761E-05 5.761E-05 3.290E+00 3.290E+00 1.075E+03 1.050E+03 1.200E+01 1.200E+01                     3.000E-02
     3  6.437E-06 6.437E-06 3.314E+00 3.314E+00 1.075E+03 1.060E+03 1.000E+01 6.000E+00 2.000E+00 1.000E+00
     4  4.295E-05 4.295E-05 1.138E+00 1.138E+00 1.040E+03 1.025E+03                                         2.500E-02 4.500E-02
     5  5.558E-05 5.558E-05 4.945E+00 4.945E+00 1.080E+03 1.060E+03 1.000E+01 1.000E+01                     3.000E-02
     6  5.303E-05 5.303E-05 6.636E-01 6.636E-01 1.060E+03 1.045E+03
     7  4.672E-05 4.672E-05 4.119E+00 4.119E+00 1.045E+03 1.025E+03 1.200E+01 1.200E+01                     3.000E-02
     8  1.622E-05 1.622E-05 2.771E+00 2.771E+00 1.025E+03 9.900E+02                                         2.500E-02 4.500E-02

  EIGHT POINT CROSS SECTION DATA FOR SEGMENTS WITH ICALC = 2
    X VALUES X VALUES START FROM LEFT SIDE LOOKING DOWNSTREAM

     SEGMENT NO.        X1        X2        X3        X4        X5        X6        X7        X8
            4      0.000E+00 1.000E+01 8.000E+01 1.000E+02 1.500E+02 1.700E+02 2.400E+02 2.500E+02
            8      0.000E+00 1.000E+01 8.000E+01 1.000E+02 1.500E+02 1.700E+02 2.400E+02 2.500E+02

    Z VALUES ARE RELATIVE TO STREAMBED ELEVATION

     SEGMENT NO.          Z1        Z2        Z3        Z4        Z5        Z6        Z7        Z8
            4      2.000E+01 1.300E+01 1.000E+01 2.000E+00 0.000E+00 1.000E+01 1.300E+01 2.000E+01
            8      2.500E+01 1.700E+01 1.300E+01 4.000E+00 0.000E+00 1.000E+01 1.600E+01 2.000E+01

 STREAMFLOW RELATION WITH DEPTH IS BASED ON EQUATION Q = CDPTH*(DEPTH)**FDPTH
 STREAMFLOW RELATION WITH WIDTH IS BASED ON EQUATION Q = AWDTH*(WIDTH)**BWDTH

 SEGMENT NO.      CDPTH     FDPTH    AWDTH     BWDTH

          6    3.000E-01 3.500E-01 3.800E+00 6.000E-01

 STREAMFLOW RELATION WITH DEPTH AND WIDTH IS BASED ON TABULATED VALUES

  SEGMENT NO.   STREAMFLOW       DEPTH       WIDTH

          1     5.0000E-01   2.5000E-01   2.5000E-01
          1     1.0000E+00   4.0000E-01   4.0000E-01
          1     2.0000E+00   5.5000E-01   5.5000E-01
          1     4.0000E+00   7.0000E-01   7.0000E-01
          1     7.0000E+00   8.0000E-01   8.0000E-01
          1     1.0000E+01   9.0000E-01   9.0000E-01
          1     2.0000E+01   1.1000E+00   1.1000E+00
          1     3.0000E+01   1.2500E+00   1.2500E+00
          1     5.0000E+01   1.4000E+00   1.4000E+00
          1     7.5000E+01   1.7000E+00   1.7000E+00
          1     1.0000E+02   2.6000E+00   2.6000E+00



 
 SOLVING FOR HEAD 

 AVERAGE SEED = 0.00926851
 MINIMUM SEED = 0.00187707

     5 ITERATION PARAMETERS CALCULATED FROM AVERAGE SEED:

  0.000000E+00 0.689721E+00 0.903727E+00 0.970128E+00 0.990731E+00

     6 ITERATIONS FOR TIME STEP   1 IN STRESS PERIOD    1

 MAXIMUM HEAD CHANGE FOR EACH ITERATION:

    HEAD CHANGE   HEAD CHANGE   HEAD CHANGE   HEAD CHANGE   HEAD CHANGE
  LAYER,ROW,COL LAYER,ROW,COL LAYER,ROW,COL LAYER,ROW,COL LAYER,ROW,COL
 ----------------------------------------------------------------------
     -1.864       -0.4411       -0.9343E-01   -0.1890E-01   -0.3779E-02
  (  1,  9,  4) (  1,  8,  4) (  1,  8,  4) (  1,  8,  4) (  1,  8,  4)
     0.7898E-03
  (  1,  8,  7)


 OUTPUT CONTROL FOR STRESS PERIOD    1   TIME STEP   1
    PRINT BUDGET
    SAVE HEAD FOR ALL LAYERS
    SAVE BUDGET
 UBDSV1 SAVING "         STORAGE" ON UNIT 740 AT TIME STEP  1, STRESS PERIOD   1
 UBDSV2 SAVING "   CONSTANT HEAD" ON UNIT 740 AT TIME STEP  1, STRESS PERIOD   1
 UBDSV1 SAVING "FLOW RIGHT FACE " ON UNIT 740 AT TIME STEP  1, STRESS PERIOD   1
 UBDSV1 SAVING "FLOW FRONT FACE " ON UNIT 740 AT TIME STEP  1, STRESS PERIOD   1
 UBDSV4 SAVING "           WELLS" ON UNIT 740 AT TIME STEP  1, STRESS PERIOD   1
 UBDSV3 SAVING "              ET" ON UNIT 740 AT TIME STEP  1, STRESS PERIOD   1
 UBDSV4 SAVING " HEAD DEP BOUNDS" ON UNIT 740 AT TIME STEP  1, STRESS PERIOD   1
 UBDSV3 SAVING "        RECHARGE" ON UNIT 740 AT TIME STEP  1, STRESS PERIOD   1
 UBDSV2 SAVING "  STREAM LEAKAGE" ON UNIT 740 AT TIME STEP  1, STRESS PERIOD   1
 UBDSV2 SAVING "STREAMFLOW OUT  " ON UNIT 741 AT TIME STEP  1, STRESS PERIOD   1




 HEAD WILL BE SAVED ON UNIT  730 AT END OF TIME STEP   1, STRESS PERIOD    1
1
  VOLUMETRIC BUDGET FOR ENTIRE MODEL AT END OF TIME STEP  1 IN STRESS PERIOD   1
  ------------------------------------------------------------------------------

     CUMULATIVE VOLUMES      L**3       RATES FOR THIS TIME STEP      L**3/T
     ------------------                 ------------------------

           IN:                                      IN:
           ---                                      ---
             STORAGE =   147531152.0000               STORAGE =         108.8251
       CONSTANT HEAD =           0.0000         CONSTANT HEAD =           0.0000
               WELLS =           0.0000                 WELLS =           0.0000
                  ET =           0.0000                    ET =           0.0000
     HEAD DEP BOUNDS =      287051.9375       HEAD DEP BOUNDS =           0.2117
            RECHARGE =     2431737.2500              RECHARGE =           1.7937
      STREAM LEAKAGE =    64787120.0000        STREAM LEAKAGE =          47.7897

            TOTAL IN =   215037072.0000              TOTAL IN =         158.6202

          OUT:                                     OUT:
          ----                                     ----
             STORAGE =    30675066.0000               STORAGE =          22.6272
       CONSTANT HEAD =           0.0000         CONSTANT HEAD =           0.0000
               WELLS =   135567232.0000                 WELLS =         100.0000
                  ET =    45519352.0000                    ET =          33.5770
     HEAD DEP BOUNDS =      347228.7500       HEAD DEP BOUNDS =           0.2561
            RECHARGE =           0.0000              RECHARGE =           0.0000
      STREAM LEAKAGE =     2940018.7500        STREAM LEAKAGE =           2.1687

           TOTAL OUT =   215048912.0000             TOTAL OUT =         158.6290

            IN - OUT =      -11840.0000              IN - OUT =      -8.7738E-03

 PERCENT DISCREPANCY =          -0.01     PERCENT DISCREPANCY =          -0.01






          TIME SUMMARY AT END OF TIME STEP   1 IN STRESS PERIOD    1
                    SECONDS     MINUTES      HOURS       DAYS        YEARS
                    -----------------------------------------------------------
   TIME STEP LENGTH 1.35567E+06  22595.      376.58      15.691     4.29587E-02
 STRESS PERIOD TIME 1.35567E+06  22595.      376.58      15.691     4.29587E-02
         TOTAL TIME 1.35567E+06  22595.      376.58      15.691     4.29587E-02
1
 
 SOLVING FOR HEAD 
     7 ITERATIONS FOR TIME STEP   2 IN STRESS PERIOD    1

 MAXIMUM HEAD CHANGE FOR EACH ITERATION:

    HEAD CHANGE   HEAD CHANGE   HEAD CHANGE   HEAD CHANGE   HEAD CHANGE
  LAYER,ROW,COL LAYER,ROW,COL LAYER,ROW,COL LAYER,ROW,COL LAYER,ROW,COL
 ----------------------------------------------------------------------
     -1.862       -0.4254       -0.8902E-01   -0.1812E-01    0.5169E-02
  (  1,  8,  4) (  1,  8,  4) (  1,  8,  4) (  1,  8,  4) (  1,  8,  7)
     0.1977E-02    0.6967E-03
  (  1,  8,  7) (  1,  8,  7)


 OUTPUT CONTROL FOR STRESS PERIOD    1   TIME STEP   2
    PRINT BUDGET
    SAVE HEAD FOR ALL LAYERS
    SAVE BUDGET
 UBDSV1 SAVING "         STORAGE" ON UNIT 740 AT TIME STEP  2, STRESS PERIOD   1
 UBDSV2 SAVING "   CONSTANT HEAD" ON UNIT 740 AT TIME STEP  2, STRESS PERIOD   1
 UBDSV1 SAVING "FLOW RIGHT FACE " ON UNIT 740 AT TIME STEP  2, STRESS PERIOD   1
 UBDSV1 SAVING "FLOW FRONT FACE " ON UNIT 740 AT TIME STEP  2, STRESS PERIOD   1
 UBDSV4 SAVING "           WELLS" ON UNIT 740 AT TIME STEP  2, STRESS PERIOD   1
 UBDSV3 SAVING "              ET" ON UNIT 740 AT TIME STEP  2, STRESS PERIOD   1
 UBDSV4 SAVING " HEAD DEP BOUNDS" ON UNIT 740 AT TIME STEP  2, STRESS PERIOD   1
 UBDSV3 SAVING "        RECHARGE" ON UNIT 740 AT TIME STEP  2, STRESS PERIOD   1
 UBDSV2 SAVING "  STREAM LEAKAGE" ON UNIT 740 AT TIME STEP  2, STRESS PERIOD   1
 UBDSV2 SAVING "STREAMFLOW OUT  " ON UNIT 741 AT TIME STEP  2, STRESS PERIOD   1




 HEAD WILL BE SAVED ON UNIT  730 AT END OF TIME STEP   2, STRESS PERIOD    1
1
  VOLUMETRIC BUDGET FOR ENTIRE MODEL AT END OF TIME STEP  2 IN STRESS PERIOD   1
  ------------------------------------------------------------------------------

     CUMULATIVE VOLUMES      L**3       RATES FOR THIS TIME STEP      L**3/T
     ------------------                 ------------------------

           IN:                                      IN:
           ---                                      ---
             STORAGE =   298131776.0000               STORAGE =         100.9902
       CONSTANT HEAD =           0.0000         CONSTANT HEAD =           0.0000
               WELLS =           0.0000                 WELLS =           0.0000
                  ET =           0.0000                    ET =           0.0000
     HEAD DEP BOUNDS =      600928.5000       HEAD DEP BOUNDS =           0.2105
            RECHARGE =     5106648.0000              RECHARGE =           1.7937
      STREAM LEAKAGE =   136135120.0000        STREAM LEAKAGE =          47.8448

            TOTAL IN =   439974464.0000              TOTAL IN =         150.8392

          OUT:                                     OUT:
          ----                                     ----
             STORAGE =    52355928.0000               STORAGE =          14.5388
       CONSTANT HEAD =           0.0000         CONSTANT HEAD =           0.0000
               WELLS =   284691200.0000                 WELLS =         100.0000
                  ET =    94535360.0000                    ET =          32.8693
     HEAD DEP BOUNDS =      740291.8125       HEAD DEP BOUNDS =           0.2636
            RECHARGE =           0.0000              RECHARGE =           0.0000
      STREAM LEAKAGE =     7670729.0000        STREAM LEAKAGE =           3.1723

           TOTAL OUT =   439993504.0000             TOTAL OUT =         150.8440

            IN - OUT =      -19040.0000              IN - OUT =      -4.8065E-03

 PERCENT DISCREPANCY =          -0.00     PERCENT DISCREPANCY =          -0.00






          TIME SUMMARY AT END OF TIME STEP   2 IN STRESS PERIOD    1
                    SECONDS     MINUTES      HOURS       DAYS        YEARS
                    -----------------------------------------------------------
   TIME STEP LENGTH 1.49124E+06  24854.      414.23      17.260     4.72545E-02
 STRESS PERIOD TIME 2.84691E+06  47449.      790.81      32.950     9.02132E-02
         TOTAL TIME 2.84691E+06  47449.      790.81      32.950     9.02132E-02
1
 
 SOLVING FOR HEAD 
     6 ITERATIONS FOR TIME STEP   3 IN STRESS PERIOD    1

 MAXIMUM HEAD CHANGE FOR EACH ITERATION:

    HEAD CHANGE   HEAD CHANGE   HEAD CHANGE   HEAD CHANGE   HEAD CHANGE
  LAYER,ROW,COL LAYER,ROW,COL LAYER,ROW,COL LAYER,ROW,COL LAYER,ROW,COL
 ----------------------------------------------------------------------
     -1.810       -0.4185       -0.8887E-01   -0.1824E-01   -0.3657E-02
  (  1,  8,  4) (  1,  8,  4) (  1,  8,  4) (  1,  8,  4) (  1,  8,  4)
    -0.7176E-03
  (  1,  8,  4)


 OUTPUT CONTROL FOR STRESS PERIOD    1   TIME STEP   3
    PRINT BUDGET
    SAVE HEAD FOR ALL LAYERS
    SAVE BUDGET
 UBDSV1 SAVING "         STORAGE" ON UNIT 740 AT TIME STEP  3, STRESS PERIOD   1
 UBDSV2 SAVING "   CONSTANT HEAD" ON UNIT 740 AT TIME STEP  3, STRESS PERIOD   1
 UBDSV1 SAVING "FLOW RIGHT FACE " ON UNIT 740 AT TIME STEP  3, STRESS PERIOD   1
 UBDSV1 SAVING "FLOW FRONT FACE " ON UNIT 740 AT TIME STEP  3, STRESS PERIOD   1
 UBDSV4 SAVING "           WELLS" ON UNIT 740 AT TIME STEP  3, STRESS PERIOD   1
 UBDSV3 SAVING "              ET" ON UNIT 740 AT TIME STEP  3, STRESS PERIOD   1
 UBDSV4 SAVING " HEAD DEP BOUNDS" ON UNIT 740 AT TIME STEP  3, STRESS PERIOD   1
 UBDSV3 SAVING "        RECHARGE" ON UNIT 740 AT TIME STEP  3, STRESS PERIOD   1
 UBDSV2 SAVING "  STREAM LEAKAGE" ON UNIT 740 AT TIME STEP  3, STRESS PERIOD   1
 UBDSV2 SAVING "STREAMFLOW OUT  " ON UNIT 741 AT TIME STEP  3, STRESS PERIOD   1




 HEAD WILL BE SAVED ON UNIT  730 AT END OF TIME STEP   3, STRESS PERIOD    1
1
  VOLUMETRIC BUDGET FOR ENTIRE MODEL AT END OF TIME STEP  3 IN STRESS PERIOD   1
  ------------------------------------------------------------------------------

     CUMULATIVE VOLUMES      L**3       RATES FOR THIS TIME STEP      L**3/T
     ------------------                 ------------------------

           IN:                                      IN:
           ---                                      ---
             STORAGE =   454495552.0000               STORAGE =          95.3226
       CONSTANT HEAD =           0.0000         CONSTANT HEAD =           0.0000
               WELLS =           0.0000                 WELLS =           0.0000
                  ET =           0.0000                    ET =           0.0000
     HEAD DEP BOUNDS =      945640.3125       HEAD DEP BOUNDS =           0.2101
            RECHARGE =     8049050.0000              RECHARGE =           1.7937
      STREAM LEAKAGE =   214150368.0000        STREAM LEAKAGE =          47.5597

            TOTAL IN =   677640576.0000              TOTAL IN =         144.8863

          OUT:                                     OUT:
          ----                                     ----
             STORAGE =    66696364.0000               STORAGE =           8.7422
       CONSTANT HEAD =           0.0000         CONSTANT HEAD =           0.0000
               WELLS =   448727552.0000                 WELLS =         100.0000
                  ET =   147059488.0000                    ET =          32.0198
     HEAD DEP BOUNDS =     1182335.5000       HEAD DEP BOUNDS =           0.2695
            RECHARGE =           0.0000              RECHARGE =           0.0000
      STREAM LEAKAGE =    14016129.0000        STREAM LEAKAGE =           3.8683

           TOTAL OUT =   677681856.0000             TOTAL OUT =         144.8998

            IN - OUT =      -41280.0000              IN - OUT =      -1.3550E-02

 PERCENT DISCREPANCY =          -0.01     PERCENT DISCREPANCY =          -0.01






          TIME SUMMARY AT END OF TIME STEP   3 IN STRESS PERIOD    1
                    SECONDS     MINUTES      HOURS       DAYS        YEARS
                    -----------------------------------------------------------
   TIME STEP LENGTH 1.64036E+06  27339.      455.66      18.986     5.19800E-02
 STRESS PERIOD TIME 4.48728E+06  74788.      1246.5      51.936     0.14219    
         TOTAL TIME 4.48728E+06  74788.      1246.5      51.936     0.14219    
1
 
 SOLVING FOR HEAD 
     6 ITERATIONS FOR TIME STEP   4 IN STRESS PERIOD    1

 MAXIMUM HEAD CHANGE FOR EACH ITERATION:

    HEAD CHANGE   HEAD CHANGE   HEAD CHANGE   HEAD CHANGE   HEAD CHANGE
  LAYER,ROW,COL LAYER,ROW,COL LAYER,ROW,COL LAYER,ROW,COL LAYER,ROW,COL
 ----------------------------------------------------------------------
     -1.735       -0.4096       -0.8844E-01   -0.1832E-01   -0.3736E-02
  (  1,  8,  4) (  1,  8,  4) (  1,  8,  4) (  1,  8,  4) (  1,  8,  4)
    -0.7260E-03
  (  1,  8,  4)


 OUTPUT CONTROL FOR STRESS PERIOD    1   TIME STEP   4
    PRINT BUDGET
    SAVE HEAD FOR ALL LAYERS
    SAVE BUDGET
 UBDSV1 SAVING "         STORAGE" ON UNIT 740 AT TIME STEP  4, STRESS PERIOD   1
 UBDSV2 SAVING "   CONSTANT HEAD" ON UNIT 740 AT TIME STEP  4, STRESS PERIOD   1
 UBDSV1 SAVING "FLOW RIGHT FACE " ON UNIT 740 AT TIME STEP  4, STRESS PERIOD   1
 UBDSV1 SAVING "FLOW FRONT FACE " ON UNIT 740 AT TIME STEP  4, STRESS PERIOD   1
 UBDSV4 SAVING "           WELLS" ON UNIT 740 AT TIME STEP  4, STRESS PERIOD   1
 UBDSV3 SAVING "              ET" ON UNIT 740 AT TIME STEP  4, STRESS PERIOD   1
 UBDSV4 SAVING " HEAD DEP BOUNDS" ON UNIT 740 AT TIME STEP  4, STRESS PERIOD   1
 UBDSV3 SAVING "        RECHARGE" ON UNIT 740 AT TIME STEP  4, STRESS PERIOD   1
 UBDSV2 SAVING "  STREAM LEAKAGE" ON UNIT 740 AT TIME STEP  4, STRESS PERIOD   1
 UBDSV2 SAVING "STREAMFLOW OUT  " ON UNIT 741 AT TIME STEP  4, STRESS PERIOD   1




 HEAD WILL BE SAVED ON UNIT  730 AT END OF TIME STEP   4, STRESS PERIOD    1
1
  VOLUMETRIC BUDGET FOR ENTIRE MODEL AT END OF TIME STEP  4 IN STRESS PERIOD   1
  ------------------------------------------------------------------------------

     CUMULATIVE VOLUMES      L**3       RATES FOR THIS TIME STEP      L**3/T
     ------------------                 ------------------------

           IN:                                      IN:
           ---                                      ---
             STORAGE =   619742848.0000               STORAGE =          91.5802
       CONSTANT HEAD =           0.0000         CONSTANT HEAD =           0.0000
               WELLS =           0.0000                 WELLS =           0.0000
                  ET =           0.0000                    ET =           0.0000
     HEAD DEP BOUNDS =     1324632.3750       HEAD DEP BOUNDS =           0.2100
            RECHARGE =    11285692.0000              RECHARGE =           1.7937
      STREAM LEAKAGE =   299508512.0000        STREAM LEAKAGE =          47.3056

            TOTAL IN =   931861632.0000              TOTAL IN =         140.8895

          OUT:                                     OUT:
          ----                                     ----
             STORAGE =    76336904.0000               STORAGE =           5.3428
       CONSTANT HEAD =           0.0000         CONSTANT HEAD =           0.0000
               WELLS =   629167552.0000                 WELLS =         100.0000
                  ET =   202850768.0000                    ET =          30.9196
     HEAD DEP BOUNDS =     1676723.7500       HEAD DEP BOUNDS =           0.2740
            RECHARGE =           0.0000              RECHARGE =           0.0000
      STREAM LEAKAGE =    21904080.0000        STREAM LEAKAGE =           4.3715

           TOTAL OUT =   931936000.0000             TOTAL OUT =         140.9079

            IN - OUT =      -74368.0000              IN - OUT =      -1.8326E-02

 PERCENT DISCREPANCY =          -0.01     PERCENT DISCREPANCY =          -0.01






          TIME SUMMARY AT END OF TIME STEP   4 IN STRESS PERIOD    1
                    SECONDS     MINUTES      HOURS       DAYS        YEARS
                    -----------------------------------------------------------
   TIME STEP LENGTH 1.80440E+06  30073.      501.22      20.884     5.71780E-02
 STRESS PERIOD TIME 6.29168E+06 1.04861E+05  1747.7      72.820     0.19937    
         TOTAL TIME 6.29168E+06 1.04861E+05  1747.7      72.820     0.19937    
1
 
 SOLVING FOR HEAD 
     7 ITERATIONS FOR TIME STEP   5 IN STRESS PERIOD    1

 MAXIMUM HEAD CHANGE FOR EACH ITERATION:

    HEAD CHANGE   HEAD CHANGE   HEAD CHANGE   HEAD CHANGE   HEAD CHANGE
  LAYER,ROW,COL LAYER,ROW,COL LAYER,ROW,COL LAYER,ROW,COL LAYER,ROW,COL
 ----------------------------------------------------------------------
     -1.651       -0.3999       -0.8808E-01   -0.1840E-01   -0.3856E-02
  (  1,  8,  4) (  1,  8,  4) (  1,  8,  4) (  1,  8,  4) (  1,  8,  6)
    -0.1293E-02   -0.3742E-03
  (  1,  8,  7) (  1,  8,  7)


 OUTPUT CONTROL FOR STRESS PERIOD    1   TIME STEP   5
    PRINT BUDGET
    SAVE HEAD FOR ALL LAYERS
    SAVE BUDGET
 UBDSV1 SAVING "         STORAGE" ON UNIT 740 AT TIME STEP  5, STRESS PERIOD   1
 UBDSV2 SAVING "   CONSTANT HEAD" ON UNIT 740 AT TIME STEP  5, STRESS PERIOD   1
 UBDSV1 SAVING "FLOW RIGHT FACE " ON UNIT 740 AT TIME STEP  5, STRESS PERIOD   1
 UBDSV1 SAVING "FLOW FRONT FACE " ON UNIT 740 AT TIME STEP  5, STRESS PERIOD   1
 UBDSV4 SAVING "           WELLS" ON UNIT 740 AT TIME STEP  5, STRESS PERIOD   1
 UBDSV3 SAVING "              ET" ON UNIT 740 AT TIME STEP  5, STRESS PERIOD   1
 UBDSV4 SAVING " HEAD DEP BOUNDS" ON UNIT 740 AT TIME STEP  5, STRESS PERIOD   1
 UBDSV3 SAVING "        RECHARGE" ON UNIT 740 AT TIME STEP  5, STRESS PERIOD   1
 UBDSV2 SAVING "  STREAM LEAKAGE" ON UNIT 740 AT TIME STEP  5, STRESS PERIOD   1
 UBDSV2 SAVING "STREAMFLOW OUT  " ON UNIT 741 AT TIME STEP  5, STRESS PERIOD   1




 HEAD WILL BE SAVED ON UNIT  730 AT END OF TIME STEP   5, STRESS PERIOD    1
1
  VOLUMETRIC BUDGET FOR ENTIRE MODEL AT END OF TIME STEP  5 IN STRESS PERIOD   1
  ------------------------------------------------------------------------------

     CUMULATIVE VOLUMES      L**3       RATES FOR THIS TIME STEP      L**3/T
     ------------------                 ------------------------

           IN:                                      IN:
           ---                                      ---
             STORAGE =   796310784.0000               STORAGE =          88.9583
       CONSTANT HEAD =           0.0000         CONSTANT HEAD =           0.0000
               WELLS =           0.0000                 WELLS =           0.0000
                  ET =           0.0000                    ET =           0.0000
     HEAD DEP BOUNDS =     1741443.0000       HEAD DEP BOUNDS =           0.2100
            RECHARGE =    14845998.0000              RECHARGE =           1.7937
      STREAM LEAKAGE =   393360672.0000        STREAM LEAKAGE =          47.2845

            TOTAL IN =  1206258944.0000              TOTAL IN =         138.2465

          OUT:                                     OUT:
          ----                                     ----
             STORAGE =    83705992.0000               STORAGE =           3.7127
       CONSTANT HEAD =           0.0000         CONSTANT HEAD =           0.0000
               WELLS =   827651584.0000                 WELLS =         100.0000
                  ET =   261962816.0000                    ET =          29.7818
     HEAD DEP BOUNDS =     2227015.2500       HEAD DEP BOUNDS =           0.2772
            RECHARGE =           0.0000              RECHARGE =           0.0000
      STREAM LEAKAGE =    30808208.0000        STREAM LEAKAGE =           4.4861

           TOTAL OUT =  1206355712.0000             TOTAL OUT =         138.2578

            IN - OUT =      -96768.0000              IN - OUT =      -1.1292E-02

 PERCENT DISCREPANCY =          -0.01     PERCENT DISCREPANCY =          -0.01






          TIME SUMMARY AT END OF TIME STEP   5 IN STRESS PERIOD    1
                    SECONDS     MINUTES      HOURS       DAYS        YEARS
                    -----------------------------------------------------------
   TIME STEP LENGTH 1.98484E+06  33081.      551.34      22.973     6.28958E-02
 STRESS PERIOD TIME 8.27652E+06 1.37942E+05  2299.0      95.793     0.26227    
         TOTAL TIME 8.27652E+06 1.37942E+05  2299.0      95.793     0.26227    
1
 
 SOLVING FOR HEAD 
     7 ITERATIONS FOR TIME STEP   6 IN STRESS PERIOD    1

 MAXIMUM HEAD CHANGE FOR EACH ITERATION:

    HEAD CHANGE   HEAD CHANGE   HEAD CHANGE   HEAD CHANGE   HEAD CHANGE
  LAYER,ROW,COL LAYER,ROW,COL LAYER,ROW,COL LAYER,ROW,COL LAYER,ROW,COL
 ----------------------------------------------------------------------
     -1.566       -0.3918       -0.8858E-01   -0.2042E-01   -0.6453E-02
  (  1,  8,  4) (  1,  8,  4) (  1,  8,  4) (  1,  8,  6) (  1,  8,  7)
    -0.2459E-02   -0.5660E-03
  (  1,  8,  7) (  1,  8,  7)


 OUTPUT CONTROL FOR STRESS PERIOD    1   TIME STEP   6
    PRINT BUDGET
    SAVE HEAD FOR ALL LAYERS
    SAVE BUDGET
 UBDSV1 SAVING "         STORAGE" ON UNIT 740 AT TIME STEP  6, STRESS PERIOD   1
 UBDSV2 SAVING "   CONSTANT HEAD" ON UNIT 740 AT TIME STEP  6, STRESS PERIOD   1
 UBDSV1 SAVING "FLOW RIGHT FACE " ON UNIT 740 AT TIME STEP  6, STRESS PERIOD   1
 UBDSV1 SAVING "FLOW FRONT FACE " ON UNIT 740 AT TIME STEP  6, STRESS PERIOD   1
 UBDSV4 SAVING "           WELLS" ON UNIT 740 AT TIME STEP  6, STRESS PERIOD   1
 UBDSV3 SAVING "              ET" ON UNIT 740 AT TIME STEP  6, STRESS PERIOD   1
 UBDSV4 SAVING " HEAD DEP BOUNDS" ON UNIT 740 AT TIME STEP  6, STRESS PERIOD   1
 UBDSV3 SAVING "        RECHARGE" ON UNIT 740 AT TIME STEP  6, STRESS PERIOD   1
 UBDSV2 SAVING "  STREAM LEAKAGE" ON UNIT 740 AT TIME STEP  6, STRESS PERIOD   1
 UBDSV2 SAVING "STREAMFLOW OUT  " ON UNIT 741 AT TIME STEP  6, STRESS PERIOD   1




 HEAD WILL BE SAVED ON UNIT  730 AT END OF TIME STEP   6, STRESS PERIOD    1
1
  VOLUMETRIC BUDGET FOR ENTIRE MODEL AT END OF TIME STEP  6 IN STRESS PERIOD   1
  ------------------------------------------------------------------------------

     CUMULATIVE VOLUMES      L**3       RATES FOR THIS TIME STEP      L**3/T
     ------------------                 ------------------------

           IN:                                      IN:
           ---                                      ---
             STORAGE =   985938048.0000               STORAGE =          86.8526
       CONSTANT HEAD =           0.0000         CONSTANT HEAD =           0.0000
               WELLS =           0.0000                 WELLS =           0.0000
                  ET =           0.0000                    ET =           0.0000
     HEAD DEP BOUNDS =     2199892.5000       HEAD DEP BOUNDS =           0.2100
            RECHARGE =    18762336.0000              RECHARGE =           1.7937
      STREAM LEAKAGE =   496866752.0000        STREAM LEAKAGE =          47.4076

            TOTAL IN =  1503767040.0000              TOTAL IN =         136.2639

          OUT:                                     OUT:
          ----                                     ----
             STORAGE =    89705600.0000               STORAGE =           2.7479
       CONSTANT HEAD =           0.0000         CONSTANT HEAD =           0.0000
               WELLS =  1045984000.0000                 WELLS =         100.0000
                  ET =   324825792.0000                    ET =          28.7923
     HEAD DEP BOUNDS =     2837194.5000       HEAD DEP BOUNDS =           0.2795
            RECHARGE =           0.0000              RECHARGE =           0.0000
      STREAM LEAKAGE =    40538040.0000        STREAM LEAKAGE =           4.4564

           TOTAL OUT =  1503890560.0000             TOTAL OUT =         136.2762

            IN - OUT =     -123520.0000              IN - OUT =      -1.2314E-02

 PERCENT DISCREPANCY =          -0.01     PERCENT DISCREPANCY =          -0.01






          TIME SUMMARY AT END OF TIME STEP   6 IN STRESS PERIOD    1
                    SECONDS     MINUTES      HOURS       DAYS        YEARS
                    -----------------------------------------------------------
   TIME STEP LENGTH 2.18332E+06  36389.      606.48      25.270     6.91854E-02
 STRESS PERIOD TIME 1.04598E+07 1.74331E+05  2905.5      121.06     0.33145    
         TOTAL TIME 1.04598E+07 1.74331E+05  2905.5      121.06     0.33145    
1
 
 SOLVING FOR HEAD 
     6 ITERATIONS FOR TIME STEP   7 IN STRESS PERIOD    1

 MAXIMUM HEAD CHANGE FOR EACH ITERATION:

    HEAD CHANGE   HEAD CHANGE   HEAD CHANGE   HEAD CHANGE   HEAD CHANGE
  LAYER,ROW,COL LAYER,ROW,COL LAYER,ROW,COL LAYER,ROW,COL LAYER,ROW,COL
 ----------------------------------------------------------------------
     -1.489       -0.3858       -0.8859E-01   -0.1882E-01   -0.3910E-02
  (  1,  8,  4) (  1,  8,  4) (  1,  8,  4) (  1,  8,  4) (  1,  8,  4)
    -0.7478E-03
  (  1,  8,  4)


 OUTPUT CONTROL FOR STRESS PERIOD    1   TIME STEP   7
    PRINT BUDGET
    SAVE HEAD FOR ALL LAYERS
    SAVE BUDGET
 UBDSV1 SAVING "         STORAGE" ON UNIT 740 AT TIME STEP  7, STRESS PERIOD   1
 UBDSV2 SAVING "   CONSTANT HEAD" ON UNIT 740 AT TIME STEP  7, STRESS PERIOD   1
 UBDSV1 SAVING "FLOW RIGHT FACE " ON UNIT 740 AT TIME STEP  7, STRESS PERIOD   1
 UBDSV1 SAVING "FLOW FRONT FACE " ON UNIT 740 AT TIME STEP  7, STRESS PERIOD   1
 UBDSV4 SAVING "           WELLS" ON UNIT 740 AT TIME STEP  7, STRESS PERIOD   1
 UBDSV3 SAVING "              ET" ON UNIT 740 AT TIME STEP  7, STRESS PERIOD   1
 UBDSV4 SAVING " HEAD DEP BOUNDS" ON UNIT 740 AT TIME STEP  7, STRESS PERIOD   1
 UBDSV3 SAVING "        RECHARGE" ON UNIT 740 AT TIME STEP  7, STRESS PERIOD   1
 UBDSV2 SAVING "  STREAM LEAKAGE" ON UNIT 740 AT TIME STEP  7, STRESS PERIOD   1
 UBDSV2 SAVING "STREAMFLOW OUT  " ON UNIT 741 AT TIME STEP  7, STRESS PERIOD   1




 HEAD WILL BE SAVED ON UNIT  730 AT END OF TIME STEP   7, STRESS PERIOD    1
1
  VOLUMETRIC BUDGET FOR ENTIRE MODEL AT END OF TIME STEP  7 IN STRESS PERIOD   1
  ------------------------------------------------------------------------------

     CUMULATIVE VOLUMES      L**3       RATES FOR THIS TIME STEP      L**3/T
     ------------------                 ------------------------

           IN:                                      IN:
           ---                                      ---
             STORAGE =  1189900544.0000               STORAGE =          84.9257
       CONSTANT HEAD =           0.0000         CONSTANT HEAD =           0.0000
               WELLS =           0.0000                 WELLS =           0.0000
                  ET =           0.0000                    ET =           0.0000
     HEAD DEP BOUNDS =     2704160.5000       HEAD DEP BOUNDS =           0.2100
            RECHARGE =    23070308.0000              RECHARGE =           1.7937
      STREAM LEAKAGE =   611180160.0000        STREAM LEAKAGE =          47.5977

            TOTAL IN =  1826855168.0000              TOTAL IN =         134.5272

          OUT:                                     OUT:
          ----                                     ----
             STORAGE =    94824952.0000               STORAGE =           2.1316
       CONSTANT HEAD =           0.0000         CONSTANT HEAD =           0.0000
               WELLS =  1286149632.0000                 WELLS =         100.0000
                  ET =   391741664.0000                    ET =          27.8624
     HEAD DEP BOUNDS =     3511806.5000       HEAD DEP BOUNDS =           0.2809
            RECHARGE =           0.0000              RECHARGE =           0.0000
      STREAM LEAKAGE =    50801520.0000        STREAM LEAKAGE =           4.2735

           TOTAL OUT =  1827029632.0000             TOTAL OUT =         134.5484

            IN - OUT =     -174464.0000              IN - OUT =      -2.1194E-02

 PERCENT DISCREPANCY =          -0.01     PERCENT DISCREPANCY =          -0.02






          TIME SUMMARY AT END OF TIME STEP   7 IN STRESS PERIOD    1
                    SECONDS     MINUTES      HOURS       DAYS        YEARS
                    -----------------------------------------------------------
   TIME STEP LENGTH 2.40166E+06  40028.      667.13      27.797     7.61039E-02
 STRESS PERIOD TIME 1.28615E+07 2.14358E+05  3572.6      148.86     0.40756    
         TOTAL TIME 1.28615E+07 2.14358E+05  3572.6      148.86     0.40756    
1
 
 SOLVING FOR HEAD 
     6 ITERATIONS FOR TIME STEP   8 IN STRESS PERIOD    1

 MAXIMUM HEAD CHANGE FOR EACH ITERATION:

    HEAD CHANGE   HEAD CHANGE   HEAD CHANGE   HEAD CHANGE   HEAD CHANGE
  LAYER,ROW,COL LAYER,ROW,COL LAYER,ROW,COL LAYER,ROW,COL LAYER,ROW,COL
 ----------------------------------------------------------------------
     -1.421       -0.3817       -0.8954E-01   -0.1923E-01   -0.4011E-02
  (  1,  8,  4) (  1,  8,  4) (  1,  8,  4) (  1,  8,  4) (  1,  8,  4)
    -0.7630E-03
  (  1,  8,  4)


 OUTPUT CONTROL FOR STRESS PERIOD    1   TIME STEP   8
    PRINT BUDGET
    SAVE HEAD FOR ALL LAYERS
    SAVE BUDGET
 UBDSV1 SAVING "         STORAGE" ON UNIT 740 AT TIME STEP  8, STRESS PERIOD   1
 UBDSV2 SAVING "   CONSTANT HEAD" ON UNIT 740 AT TIME STEP  8, STRESS PERIOD   1
 UBDSV1 SAVING "FLOW RIGHT FACE " ON UNIT 740 AT TIME STEP  8, STRESS PERIOD   1
 UBDSV1 SAVING "FLOW FRONT FACE " ON UNIT 740 AT TIME STEP  8, STRESS PERIOD   1
 UBDSV4 SAVING "           WELLS" ON UNIT 740 AT TIME STEP  8, STRESS PERIOD   1
 UBDSV3 SAVING "              ET" ON UNIT 740 AT TIME STEP  8, STRESS PERIOD   1
 UBDSV4 SAVING " HEAD DEP BOUNDS" ON UNIT 740 AT TIME STEP  8, STRESS PERIOD   1
 UBDSV3 SAVING "        RECHARGE" ON UNIT 740 AT TIME STEP  8, STRESS PERIOD   1
 UBDSV2 SAVING "  STREAM LEAKAGE" ON UNIT 740 AT TIME STEP  8, STRESS PERIOD   1
 UBDSV2 SAVING "STREAMFLOW OUT  " ON UNIT 741 AT TIME STEP  8, STRESS PERIOD   1




 HEAD WILL BE SAVED ON UNIT  730 AT END OF TIME STEP   8, STRESS PERIOD    1
1
  VOLUMETRIC BUDGET FOR ENTIRE MODEL AT END OF TIME STEP  8 IN STRESS PERIOD   1
  ------------------------------------------------------------------------------

     CUMULATIVE VOLUMES      L**3       RATES FOR THIS TIME STEP      L**3/T
     ------------------                 ------------------------

           IN:                                      IN:
           ---                                      ---
             STORAGE =  1408705024.0000               STORAGE =          82.8233
       CONSTANT HEAD =           0.0000         CONSTANT HEAD =           0.0000
               WELLS =           0.0000                 WELLS =           0.0000
                  ET =           0.0000                    ET =           0.0000
     HEAD DEP BOUNDS =     3258842.0000       HEAD DEP BOUNDS =           0.2100
            RECHARGE =    27809076.0000              RECHARGE =           1.7937
      STREAM LEAKAGE =   737596224.0000        STREAM LEAKAGE =          47.8518

            TOTAL IN =  2177369088.0000              TOTAL IN =         132.6788

          OUT:                                     OUT:
          ----                                     ----
             STORAGE =    98854120.0000               STORAGE =           1.5251
       CONSTANT HEAD =           0.0000         CONSTANT HEAD =           0.0000
               WELLS =  1550331904.0000                 WELLS =         100.0000
                  ET =   462845632.0000                    ET =          26.9147
     HEAD DEP BOUNDS =     4256053.0000       HEAD DEP BOUNDS =           0.2817
            RECHARGE =           0.0000              RECHARGE =           0.0000
      STREAM LEAKAGE =    61294908.0000        STREAM LEAKAGE =           3.9720

           TOTAL OUT =  2177582592.0000             TOTAL OUT =         132.6936

            IN - OUT =     -213504.0000              IN - OUT =      -1.4801E-02

 PERCENT DISCREPANCY =          -0.01     PERCENT DISCREPANCY =          -0.01






          TIME SUMMARY AT END OF TIME STEP   8 IN STRESS PERIOD    1
                    SECONDS     MINUTES      HOURS       DAYS        YEARS
                    -----------------------------------------------------------
   TIME STEP LENGTH 2.64182E+06  44030.      733.84      30.577     8.37143E-02
 STRESS PERIOD TIME 1.55033E+07 2.58389E+05  4306.5      179.44     0.49127    
         TOTAL TIME 1.55033E+07 2.58389E+05  4306.5      179.44     0.49127    
1
 
 SOLVING FOR HEAD 
     6 ITERATIONS FOR TIME STEP   9 IN STRESS PERIOD    1

 MAXIMUM HEAD CHANGE FOR EACH ITERATION:

    HEAD CHANGE   HEAD CHANGE   HEAD CHANGE   HEAD CHANGE   HEAD CHANGE
  LAYER,ROW,COL LAYER,ROW,COL LAYER,ROW,COL LAYER,ROW,COL LAYER,ROW,COL
 ----------------------------------------------------------------------
     -1.360       -0.3814       -0.9299E-01   -0.2027E-01   -0.4315E-02
  (  1,  8,  4) (  1,  8,  4) (  1,  8,  5) (  1,  8,  5) (  1,  8,  5)
    -0.7937E-03
  (  1,  8,  4)


 OUTPUT CONTROL FOR STRESS PERIOD    1   TIME STEP   9
    PRINT BUDGET
    SAVE HEAD FOR ALL LAYERS
    SAVE BUDGET
 UBDSV1 SAVING "         STORAGE" ON UNIT 740 AT TIME STEP  9, STRESS PERIOD   1
 UBDSV2 SAVING "   CONSTANT HEAD" ON UNIT 740 AT TIME STEP  9, STRESS PERIOD   1
 UBDSV1 SAVING "FLOW RIGHT FACE " ON UNIT 740 AT TIME STEP  9, STRESS PERIOD   1
 UBDSV1 SAVING "FLOW FRONT FACE " ON UNIT 740 AT TIME STEP  9, STRESS PERIOD   1
 UBDSV4 SAVING "           WELLS" ON UNIT 740 AT TIME STEP  9, STRESS PERIOD   1
 UBDSV3 SAVING "              ET" ON UNIT 740 AT TIME STEP  9, STRESS PERIOD   1
 UBDSV4 SAVING " HEAD DEP BOUNDS" ON UNIT 740 AT TIME STEP  9, STRESS PERIOD   1
 UBDSV3 SAVING "        RECHARGE" ON UNIT 740 AT TIME STEP  9, STRESS PERIOD   1
 UBDSV2 SAVING "  STREAM LEAKAGE" ON UNIT 740 AT TIME STEP  9, STRESS PERIOD   1
 UBDSV2 SAVING "STREAMFLOW OUT  " ON UNIT 741 AT TIME STEP  9, STRESS PERIOD   1




 HEAD WILL BE SAVED ON UNIT  730 AT END OF TIME STEP   9, STRESS PERIOD    1
1
  VOLUMETRIC BUDGET FOR ENTIRE MODEL AT END OF TIME STEP  9 IN STRESS PERIOD   1
  ------------------------------------------------------------------------------

     CUMULATIVE VOLUMES      L**3       RATES FOR THIS TIME STEP      L**3/T
     ------------------                 ------------------------

           IN:                                      IN:
           ---                                      ---
             STORAGE =  1642945664.0000               STORAGE =          80.6057
       CONSTANT HEAD =           0.0000         CONSTANT HEAD =           0.0000
               WELLS =           0.0000                 WELLS =           0.0000
                  ET =           0.0000                    ET =           0.0000
     HEAD DEP BOUNDS =     3868987.5000       HEAD DEP BOUNDS =           0.2100
            RECHARGE =    33021722.0000              RECHARGE =           1.7937
      STREAM LEAKAGE =   877555968.0000        STREAM LEAKAGE =          48.1623

            TOTAL IN =  2557392384.0000              TOTAL IN =         130.7717

          OUT:                                     OUT:
          ----                                     ----
             STORAGE =   101916560.0000               STORAGE =           1.0538
       CONSTANT HEAD =           0.0000         CONSTANT HEAD =           0.0000
               WELLS =  1840932352.0000                 WELLS =         100.0000
                  ET =   538021696.0000                    ET =          25.8692
     HEAD DEP BOUNDS =     5075888.0000       HEAD DEP BOUNDS =           0.2821
            RECHARGE =           0.0000              RECHARGE =           0.0000
      STREAM LEAKAGE =    71702112.0000        STREAM LEAKAGE =           3.5813

           TOTAL OUT =  2557648640.0000             TOTAL OUT =         130.7865

            IN - OUT =     -256256.0000              IN - OUT =      -1.4725E-02

 PERCENT DISCREPANCY =          -0.01     PERCENT DISCREPANCY =          -0.01






          TIME SUMMARY AT END OF TIME STEP   9 IN STRESS PERIOD    1
                    SECONDS     MINUTES      HOURS       DAYS        YEARS
                    -----------------------------------------------------------
   TIME STEP LENGTH 2.90600E+06  48433.      807.22      33.634     9.20857E-02
 STRESS PERIOD TIME 1.84093E+07 3.06822E+05  5113.7      213.07     0.58336    
         TOTAL TIME 1.84093E+07 3.06822E+05  5113.7      213.07     0.58336    
1
 
 SOLVING FOR HEAD 
     6 ITERATIONS FOR TIME STEP  10 IN STRESS PERIOD    1

 MAXIMUM HEAD CHANGE FOR EACH ITERATION:

    HEAD CHANGE   HEAD CHANGE   HEAD CHANGE   HEAD CHANGE   HEAD CHANGE
  LAYER,ROW,COL LAYER,ROW,COL LAYER,ROW,COL LAYER,ROW,COL LAYER,ROW,COL
 ----------------------------------------------------------------------
     -1.307       -0.3843       -0.9881E-01   -0.2198E-01   -0.4719E-02
  (  1,  8,  4) (  1,  8,  4) (  1,  8,  5) (  1,  8,  5) (  1,  8,  5)
    -0.9326E-03
  (  1,  7,  7)


 OUTPUT CONTROL FOR STRESS PERIOD    1   TIME STEP  10
    PRINT BUDGET
    SAVE HEAD FOR ALL LAYERS
    SAVE BUDGET
 UBDSV1 SAVING "         STORAGE" ON UNIT 740 AT TIME STEP 10, STRESS PERIOD   1
 UBDSV2 SAVING "   CONSTANT HEAD" ON UNIT 740 AT TIME STEP 10, STRESS PERIOD   1
 UBDSV1 SAVING "FLOW RIGHT FACE " ON UNIT 740 AT TIME STEP 10, STRESS PERIOD   1
 UBDSV1 SAVING "FLOW FRONT FACE " ON UNIT 740 AT TIME STEP 10, STRESS PERIOD   1
 UBDSV4 SAVING "           WELLS" ON UNIT 740 AT TIME STEP 10, STRESS PERIOD   1
 UBDSV3 SAVING "              ET" ON UNIT 740 AT TIME STEP 10, STRESS PERIOD   1
 UBDSV4 SAVING " HEAD DEP BOUNDS" ON UNIT 740 AT TIME STEP 10, STRESS PERIOD   1
 UBDSV3 SAVING "        RECHARGE" ON UNIT 740 AT TIME STEP 10, STRESS PERIOD   1
 UBDSV2 SAVING "  STREAM LEAKAGE" ON UNIT 740 AT TIME STEP 10, STRESS PERIOD   1
 UBDSV2 SAVING "STREAMFLOW OUT  " ON UNIT 741 AT TIME STEP 10, STRESS PERIOD   1




 HEAD WILL BE SAVED ON UNIT  730 AT END OF TIME STEP  10, STRESS PERIOD    1
1
  VOLUMETRIC BUDGET FOR ENTIRE MODEL AT END OF TIME STEP 10 IN STRESS PERIOD   1
  ------------------------------------------------------------------------------

     CUMULATIVE VOLUMES      L**3       RATES FOR THIS TIME STEP      L**3/T
     ------------------                 ------------------------

           IN:                                      IN:
           ---                                      ---
             STORAGE =  1893197568.0000               STORAGE =          78.2868
       CONSTANT HEAD =           0.0000         CONSTANT HEAD =           0.0000
               WELLS =           0.0000                 WELLS =           0.0000
                  ET =           0.0000                    ET =           0.0000
     HEAD DEP BOUNDS =     4540155.0000       HEAD DEP BOUNDS =           0.2100
            RECHARGE =    38755632.0000              RECHARGE =           1.7937
      STREAM LEAKAGE =  1033165312.0000        STREAM LEAKAGE =          48.6796

            TOTAL IN =  2969658624.0000              TOTAL IN =         128.9701

          OUT:                                     OUT:
          ----                                     ----
             STORAGE =   104193240.0000               STORAGE =           0.7122
       CONSTANT HEAD =           0.0000         CONSTANT HEAD =           0.0000
               WELLS =  2160592896.0000                 WELLS =         100.0000
                  ET =   617015232.0000                    ET =          24.7117
     HEAD DEP BOUNDS =     5978041.0000       HEAD DEP BOUNDS =           0.2822
            RECHARGE =           0.0000              RECHARGE =           0.0000
      STREAM LEAKAGE =    82189792.0000        STREAM LEAKAGE =           3.2809

           TOTAL OUT =  2969969408.0000             TOTAL OUT =         128.9870

            IN - OUT =     -310784.0000              IN - OUT =      -1.6968E-02

 PERCENT DISCREPANCY =          -0.01     PERCENT DISCREPANCY =          -0.01






          TIME SUMMARY AT END OF TIME STEP  10 IN STRESS PERIOD    1
                    SECONDS     MINUTES      HOURS       DAYS        YEARS
                    -----------------------------------------------------------
   TIME STEP LENGTH 3.19660E+06  53277.      887.95      36.998     0.10129    
 STRESS PERIOD TIME 2.16059E+07 3.60099E+05  6001.6      250.07     0.68465    
         TOTAL TIME 2.16059E+07 3.60099E+05  6001.6      250.07     0.68465    
1
 
 SOLVING FOR HEAD 
     7 ITERATIONS FOR TIME STEP  11 IN STRESS PERIOD    1

 MAXIMUM HEAD CHANGE FOR EACH ITERATION:

    HEAD CHANGE   HEAD CHANGE   HEAD CHANGE   HEAD CHANGE   HEAD CHANGE
  LAYER,ROW,COL LAYER,ROW,COL LAYER,ROW,COL LAYER,ROW,COL LAYER,ROW,COL
 ----------------------------------------------------------------------
     -1.303       -0.3903       -0.1059       -0.2418E-01   -0.5308E-02
  (  1,  8,  3) (  1,  8,  4) (  1,  8,  5) (  1,  8,  5) (  1,  7,  7)
    -0.1360E-02   -0.4117E-03
  (  1,  7,  7) (  1,  7,  7)


 OUTPUT CONTROL FOR STRESS PERIOD    1   TIME STEP  11
    PRINT BUDGET
    SAVE HEAD FOR ALL LAYERS
    SAVE BUDGET
 UBDSV1 SAVING "         STORAGE" ON UNIT 740 AT TIME STEP 11, STRESS PERIOD   1
 UBDSV2 SAVING "   CONSTANT HEAD" ON UNIT 740 AT TIME STEP 11, STRESS PERIOD   1
 UBDSV1 SAVING "FLOW RIGHT FACE " ON UNIT 740 AT TIME STEP 11, STRESS PERIOD   1
 UBDSV1 SAVING "FLOW FRONT FACE " ON UNIT 740 AT TIME STEP 11, STRESS PERIOD   1
 UBDSV4 SAVING "           WELLS" ON UNIT 740 AT TIME STEP 11, STRESS PERIOD   1
 UBDSV3 SAVING "              ET" ON UNIT 740 AT TIME STEP 11, STRESS PERIOD   1
 UBDSV4 SAVING " HEAD DEP BOUNDS" ON UNIT 740 AT TIME STEP 11, STRESS PERIOD   1
 UBDSV3 SAVING "        RECHARGE" ON UNIT 740 AT TIME STEP 11, STRESS PERIOD   1
 UBDSV2 SAVING "  STREAM LEAKAGE" ON UNIT 740 AT TIME STEP 11, STRESS PERIOD   1
 UBDSV2 SAVING "STREAMFLOW OUT  " ON UNIT 741 AT TIME STEP 11, STRESS PERIOD   1




 HEAD WILL BE SAVED ON UNIT  730 AT END OF TIME STEP  11, STRESS PERIOD    1
1
  VOLUMETRIC BUDGET FOR ENTIRE MODEL AT END OF TIME STEP 11 IN STRESS PERIOD   1
  ------------------------------------------------------------------------------

     CUMULATIVE VOLUMES      L**3       RATES FOR THIS TIME STEP      L**3/T
     ------------------                 ------------------------

           IN:                                      IN:
           ---                                      ---
             STORAGE =  2160651776.0000               STORAGE =          76.0620
       CONSTANT HEAD =           0.0000         CONSTANT HEAD =           0.0000
               WELLS =           0.0000                 WELLS =           0.0000
                  ET =           0.0000                    ET =           0.0000
     HEAD DEP BOUNDS =     5278449.0000       HEAD DEP BOUNDS =           0.2100
            RECHARGE =    45062932.0000              RECHARGE =           1.7937
      STREAM LEAKAGE =  1206429184.0000        STREAM LEAKAGE =          49.2750

            TOTAL IN =  3417422336.0000              TOTAL IN =         127.3407

          OUT:                                     OUT:
          ----                                     ----
             STORAGE =   105830328.0000               STORAGE =           0.4656
       CONSTANT HEAD =           0.0000         CONSTANT HEAD =           0.0000
               WELLS =  2512219392.0000                 WELLS =         100.0000
                  ET =   700128832.0000                    ET =          23.6369
     HEAD DEP BOUNDS =     6970046.5000       HEAD DEP BOUNDS =           0.2821
            RECHARGE =           0.0000              RECHARGE =           0.0000
      STREAM LEAKAGE =    92603896.0000        STREAM LEAKAGE =           2.9617

           TOTAL OUT =  3417752576.0000             TOTAL OUT =         127.3463

            IN - OUT =     -330240.0000              IN - OUT =      -5.5923E-03

 PERCENT DISCREPANCY =          -0.01     PERCENT DISCREPANCY =          -0.00






          TIME SUMMARY AT END OF TIME STEP  11 IN STRESS PERIOD    1
                    SECONDS     MINUTES      HOURS       DAYS        YEARS
                    -----------------------------------------------------------
   TIME STEP LENGTH 3.51627E+06  58604.      976.74      40.698     0.11142    
 STRESS PERIOD TIME 2.51222E+07 4.18703E+05  6978.4      290.77     0.79607    
         TOTAL TIME 2.51222E+07 4.18703E+05  6978.4      290.77     0.79607    
1
 
 SOLVING FOR HEAD 
     7 ITERATIONS FOR TIME STEP  12 IN STRESS PERIOD    1

 MAXIMUM HEAD CHANGE FOR EACH ITERATION:

    HEAD CHANGE   HEAD CHANGE   HEAD CHANGE   HEAD CHANGE   HEAD CHANGE
  LAYER,ROW,COL LAYER,ROW,COL LAYER,ROW,COL LAYER,ROW,COL LAYER,ROW,COL
 ----------------------------------------------------------------------
     -1.318       -0.4023       -0.1145       -0.2696E-01   -0.7087E-02
  (  1,  8,  3) (  1,  8,  5) (  1,  8,  5) (  1,  8,  6) (  1,  7,  7)
    -0.1869E-02   -0.5737E-03
  (  1,  7,  7) (  1,  7,  7)


 OUTPUT CONTROL FOR STRESS PERIOD    1   TIME STEP  12
    PRINT BUDGET
    SAVE HEAD FOR ALL LAYERS
    SAVE BUDGET
 UBDSV1 SAVING "         STORAGE" ON UNIT 740 AT TIME STEP 12, STRESS PERIOD   1
 UBDSV2 SAVING "   CONSTANT HEAD" ON UNIT 740 AT TIME STEP 12, STRESS PERIOD   1
 UBDSV1 SAVING "FLOW RIGHT FACE " ON UNIT 740 AT TIME STEP 12, STRESS PERIOD   1
 UBDSV1 SAVING "FLOW FRONT FACE " ON UNIT 740 AT TIME STEP 12, STRESS PERIOD   1
 UBDSV4 SAVING "           WELLS" ON UNIT 740 AT TIME STEP 12, STRESS PERIOD   1
 UBDSV3 SAVING "              ET" ON UNIT 740 AT TIME STEP 12, STRESS PERIOD   1
 UBDSV4 SAVING " HEAD DEP BOUNDS" ON UNIT 740 AT TIME STEP 12, STRESS PERIOD   1
 UBDSV3 SAVING "        RECHARGE" ON UNIT 740 AT TIME STEP 12, STRESS PERIOD   1
 UBDSV2 SAVING "  STREAM LEAKAGE" ON UNIT 740 AT TIME STEP 12, STRESS PERIOD   1
 UBDSV2 SAVING "STREAMFLOW OUT  " ON UNIT 741 AT TIME STEP 12, STRESS PERIOD   1




 HEAD WILL BE SAVED ON UNIT  730 AT END OF TIME STEP  12, STRESS PERIOD    1
1
  VOLUMETRIC BUDGET FOR ENTIRE MODEL AT END OF TIME STEP 12 IN STRESS PERIOD   1
  ------------------------------------------------------------------------------

     CUMULATIVE VOLUMES      L**3       RATES FOR THIS TIME STEP      L**3/T
     ------------------                 ------------------------

           IN:                                      IN:
           ---                                      ---
             STORAGE =  2446671872.0000               STORAGE =          73.9473
       CONSTANT HEAD =           0.0000         CONSTANT HEAD =           0.0000
               WELLS =           0.0000                 WELLS =           0.0000
                  ET =           0.0000                    ET =           0.0000
     HEAD DEP BOUNDS =     6090594.0000       HEAD DEP BOUNDS =           0.2100
            RECHARGE =    52000964.0000              RECHARGE =           1.7937
      STREAM LEAKAGE =  1399506816.0000        STREAM LEAKAGE =          49.9181

            TOTAL IN =  3904270336.0000              TOTAL IN =         125.8690

          OUT:                                     OUT:
          ----                                     ----
             STORAGE =   107056040.0000               STORAGE =           0.3169
       CONSTANT HEAD =           0.0000         CONSTANT HEAD =           0.0000
               WELLS =  2899008512.0000                 WELLS =         100.0000
                  ET =   787815936.0000                    ET =          22.6705
     HEAD DEP BOUNDS =     8060260.5000       HEAD DEP BOUNDS =           0.2819
            RECHARGE =           0.0000              RECHARGE =           0.0000
      STREAM LEAKAGE =   102683776.0000        STREAM LEAKAGE =           2.6060

           TOTAL OUT =  3904624640.0000             TOTAL OUT =         125.8753

            IN - OUT =     -354304.0000              IN - OUT =      -6.2790E-03

 PERCENT DISCREPANCY =          -0.01     PERCENT DISCREPANCY =          -0.00






          TIME SUMMARY AT END OF TIME STEP  12 IN STRESS PERIOD    1
                    SECONDS     MINUTES      HOURS       DAYS        YEARS
                    -----------------------------------------------------------
   TIME STEP LENGTH 3.86789E+06  64465.      1074.4      44.767     0.12257    
 STRESS PERIOD TIME 2.89901E+07 4.83168E+05  8052.8      335.53     0.91864    
         TOTAL TIME 2.89901E+07 4.83168E+05  8052.8      335.53     0.91864    
1
 
 SOLVING FOR HEAD 
     7 ITERATIONS FOR TIME STEP  13 IN STRESS PERIOD    1

 MAXIMUM HEAD CHANGE FOR EACH ITERATION:

    HEAD CHANGE   HEAD CHANGE   HEAD CHANGE   HEAD CHANGE   HEAD CHANGE
  LAYER,ROW,COL LAYER,ROW,COL LAYER,ROW,COL LAYER,ROW,COL LAYER,ROW,COL
 ----------------------------------------------------------------------
     -1.328       -0.4216       -0.1251       -0.3421E-01   -0.9826E-02
  (  1,  8,  3) (  1,  8,  5) (  1,  8,  5) (  1,  7,  7) (  1,  7,  7)
    -0.2723E-02   -0.8553E-03
  (  1,  7,  7) (  1,  7,  7)


 OUTPUT CONTROL FOR STRESS PERIOD    1   TIME STEP  13
    PRINT BUDGET
    SAVE HEAD FOR ALL LAYERS
    SAVE BUDGET
 UBDSV1 SAVING "         STORAGE" ON UNIT 740 AT TIME STEP 13, STRESS PERIOD   1
 UBDSV2 SAVING "   CONSTANT HEAD" ON UNIT 740 AT TIME STEP 13, STRESS PERIOD   1
 UBDSV1 SAVING "FLOW RIGHT FACE " ON UNIT 740 AT TIME STEP 13, STRESS PERIOD   1
 UBDSV1 SAVING "FLOW FRONT FACE " ON UNIT 740 AT TIME STEP 13, STRESS PERIOD   1
 UBDSV4 SAVING "           WELLS" ON UNIT 740 AT TIME STEP 13, STRESS PERIOD   1
 UBDSV3 SAVING "              ET" ON UNIT 740 AT TIME STEP 13, STRESS PERIOD   1
 UBDSV4 SAVING " HEAD DEP BOUNDS" ON UNIT 740 AT TIME STEP 13, STRESS PERIOD   1
 UBDSV3 SAVING "        RECHARGE" ON UNIT 740 AT TIME STEP 13, STRESS PERIOD   1
 UBDSV2 SAVING "  STREAM LEAKAGE" ON UNIT 740 AT TIME STEP 13, STRESS PERIOD   1
 UBDSV2 SAVING "STREAMFLOW OUT  " ON UNIT 741 AT TIME STEP 13, STRESS PERIOD   1




 HEAD WILL BE SAVED ON UNIT  730 AT END OF TIME STEP  13, STRESS PERIOD    1
1
  VOLUMETRIC BUDGET FOR ENTIRE MODEL AT END OF TIME STEP 13 IN STRESS PERIOD   1
  ------------------------------------------------------------------------------

     CUMULATIVE VOLUMES      L**3       RATES FOR THIS TIME STEP      L**3/T
     ------------------                 ------------------------

           IN:                                      IN:
           ---                                      ---
             STORAGE =  2753398272.0000               STORAGE =          72.0915
       CONSTANT HEAD =           0.0000         CONSTANT HEAD =           0.0000
               WELLS =           0.0000                 WELLS =           0.0000
                  ET =           0.0000                    ET =           0.0000
     HEAD DEP BOUNDS =     6983977.0000       HEAD DEP BOUNDS =           0.2100
            RECHARGE =    59632800.0000              RECHARGE =           1.7937
      STREAM LEAKAGE =  1614783488.0000        STREAM LEAKAGE =          50.5976

            TOTAL IN =  4434798592.0000              TOTAL IN =         124.6928

          OUT:                                     OUT:
          ----                                     ----
             STORAGE =   107990648.0000               STORAGE =           0.2197
       CONSTANT HEAD =           0.0000         CONSTANT HEAD =           0.0000
               WELLS =  3324476672.0000                 WELLS =         100.0000
                  ET =   881125056.0000                    ET =          21.9309
     HEAD DEP BOUNDS =     9257952.0000       HEAD DEP BOUNDS =           0.2815
            RECHARGE =           0.0000              RECHARGE =           0.0000
      STREAM LEAKAGE =   112336896.0000        STREAM LEAKAGE =           2.2688

           TOTAL OUT =  4435187200.0000             TOTAL OUT =         124.7009

            IN - OUT =     -388608.0000              IN - OUT =      -8.1024E-03

 PERCENT DISCREPANCY =          -0.01     PERCENT DISCREPANCY =          -0.01






          TIME SUMMARY AT END OF TIME STEP  13 IN STRESS PERIOD    1
                    SECONDS     MINUTES      HOURS       DAYS        YEARS
                    -----------------------------------------------------------
   TIME STEP LENGTH 4.25468E+06  70911.      1181.9      49.244     0.13482    
 STRESS PERIOD TIME 3.32448E+07 5.54079E+05  9234.7      384.78      1.0535    
         TOTAL TIME 3.32448E+07 5.54079E+05  9234.7      384.78      1.0535    
1
 
 SOLVING FOR HEAD 
     7 ITERATIONS FOR TIME STEP  14 IN STRESS PERIOD    1

 MAXIMUM HEAD CHANGE FOR EACH ITERATION:

    HEAD CHANGE   HEAD CHANGE   HEAD CHANGE   HEAD CHANGE   HEAD CHANGE
  LAYER,ROW,COL LAYER,ROW,COL LAYER,ROW,COL LAYER,ROW,COL LAYER,ROW,COL
 ----------------------------------------------------------------------
     -1.337       -0.4440       -0.1373       -0.3904E-01   -0.9315E-02
  (  1,  8,  3) (  1,  8,  5) (  1,  8,  5) (  1,  7,  7) (  1,  7,  7)
    -0.2451E-02   -0.7426E-03
  (  1,  7,  7) (  1,  7,  7)


 OUTPUT CONTROL FOR STRESS PERIOD    1   TIME STEP  14
    PRINT BUDGET
    SAVE HEAD FOR ALL LAYERS
    SAVE BUDGET
 UBDSV1 SAVING "         STORAGE" ON UNIT 740 AT TIME STEP 14, STRESS PERIOD   1
 UBDSV2 SAVING "   CONSTANT HEAD" ON UNIT 740 AT TIME STEP 14, STRESS PERIOD   1
 UBDSV1 SAVING "FLOW RIGHT FACE " ON UNIT 740 AT TIME STEP 14, STRESS PERIOD   1
 UBDSV1 SAVING "FLOW FRONT FACE " ON UNIT 740 AT TIME STEP 14, STRESS PERIOD   1
 UBDSV4 SAVING "           WELLS" ON UNIT 740 AT TIME STEP 14, STRESS PERIOD   1
 UBDSV3 SAVING "              ET" ON UNIT 740 AT TIME STEP 14, STRESS PERIOD   1
 UBDSV4 SAVING " HEAD DEP BOUNDS" ON UNIT 740 AT TIME STEP 14, STRESS PERIOD   1
 UBDSV3 SAVING "        RECHARGE" ON UNIT 740 AT TIME STEP 14, STRESS PERIOD   1
 UBDSV2 SAVING "  STREAM LEAKAGE" ON UNIT 740 AT TIME STEP 14, STRESS PERIOD   1
 UBDSV2 SAVING "STREAMFLOW OUT  " ON UNIT 741 AT TIME STEP 14, STRESS PERIOD   1




 HEAD WILL BE SAVED ON UNIT  730 AT END OF TIME STEP  14, STRESS PERIOD    1
1
  VOLUMETRIC BUDGET FOR ENTIRE MODEL AT END OF TIME STEP 14 IN STRESS PERIOD   1
  ------------------------------------------------------------------------------

     CUMULATIVE VOLUMES      L**3       RATES FOR THIS TIME STEP      L**3/T
     ------------------                 ------------------------

           IN:                                      IN:
           ---                                      ---
             STORAGE =  3082969600.0000               STORAGE =          70.4189
       CONSTANT HEAD =           0.0000         CONSTANT HEAD =           0.0000
               WELLS =           0.0000                 WELLS =           0.0000
                  ET =           0.0000                    ET =           0.0000
     HEAD DEP BOUNDS =     7966743.5000       HEAD DEP BOUNDS =           0.2100
            RECHARGE =    68027816.0000              RECHARGE =           1.7937
      STREAM LEAKAGE =  1854920704.0000        STREAM LEAKAGE =          51.3097

            TOTAL IN =  5013884928.0000              TOTAL IN =         123.7324

          OUT:                                     OUT:
          ----                                     ----
             STORAGE =   108697352.0000               STORAGE =           0.1510
       CONSTANT HEAD =           0.0000         CONSTANT HEAD =           0.0000
               WELLS =  3792491776.0000                 WELLS =         100.0000
[...]
 UBDSV2 SAVING "   CONSTANT HEAD" ON UNIT 740 AT TIME STEP 46, STRESS PERIOD   2
 UBDSV1 SAVING "FLOW RIGHT FACE " ON UNIT 740 AT TIME STEP 46, STRESS PERIOD   2
 UBDSV1 SAVING "FLOW FRONT FACE " ON UNIT 740 AT TIME STEP 46, STRESS PERIOD   2
 UBDSV4 SAVING "           WELLS" ON UNIT 740 AT TIME STEP 46, STRESS PERIOD   2
 UBDSV3 SAVING "              ET" ON UNIT 740 AT TIME STEP 46, STRESS PERIOD   2
 UBDSV4 SAVING " HEAD DEP BOUNDS" ON UNIT 740 AT TIME STEP 46, STRESS PERIOD   2
 UBDSV3 SAVING "        RECHARGE" ON UNIT 740 AT TIME STEP 46, STRESS PERIOD   2
 UBDSV2 SAVING "  STREAM LEAKAGE" ON UNIT 740 AT TIME STEP 46, STRESS PERIOD   2
 UBDSV2 SAVING "STREAMFLOW OUT  " ON UNIT 741 AT TIME STEP 46, STRESS PERIOD   2




 HEAD WILL BE SAVED ON UNIT  730 AT END OF TIME STEP  46, STRESS PERIOD    2
1
  VOLUMETRIC BUDGET FOR ENTIRE MODEL AT END OF TIME STEP 46 IN STRESS PERIOD   2
  ------------------------------------------------------------------------------

     CUMULATIVE VOLUMES      L**3       RATES FOR THIS TIME STEP      L**3/T
     ------------------                 ------------------------

           IN:                                      IN:
           ---                                      ---
             STORAGE = 35264720896.0000               STORAGE =           0.0000
       CONSTANT HEAD =           0.0000         CONSTANT HEAD =           0.0000
               WELLS =           0.0000                 WELLS =           0.0000
                  ET =           0.0000                    ET =           0.0000
     HEAD DEP BOUNDS =   558496256.0000       HEAD DEP BOUNDS =           0.2100
            RECHARGE =  2817710848.0000              RECHARGE =           0.0000
      STREAM LEAKAGE =201829138432.0000        STREAM LEAKAGE =          46.1066

            TOTAL IN =240470065152.0000              TOTAL IN =          46.3167

          OUT:                                     OUT:
          ----                                     ----
             STORAGE = 33703753728.0000               STORAGE =           1.8691
       CONSTANT HEAD =           0.0000         CONSTANT HEAD =           0.0000
               WELLS =157788012544.0000                 WELLS =           0.0000
                  ET = 44209192960.0000                    ET =          37.7070
     HEAD DEP BOUNDS =   678724480.0000       HEAD DEP BOUNDS =           0.2852
            RECHARGE =           0.0000              RECHARGE =           0.0000
      STREAM LEAKAGE =  4093020672.0000        STREAM LEAKAGE =           6.4538

           TOTAL OUT =240472702976.0000             TOTAL OUT =          46.3152

            IN - OUT =    -2637824.0000              IN - OUT =       1.4915E-03

 PERCENT DISCREPANCY =          -0.00     PERCENT DISCREPANCY =           0.00






          TIME SUMMARY AT END OF TIME STEP  46 IN STRESS PERIOD    2
                    SECONDS     MINUTES      HOURS       DAYS        YEARS
                    -----------------------------------------------------------
   TIME STEP LENGTH 9.88157E+07 1.64693E+06  27449.      1143.7      3.1313    
 STRESS PERIOD TIME 1.07342E+09 1.78903E+07 2.98171E+05  12424.      34.014    
         TOTAL TIME 2.65130E+09 4.41883E+07 7.36471E+05  30686.      84.014    
1
 
 SOLVING FOR HEAD 
    10 ITERATIONS FOR TIME STEP  47 IN STRESS PERIOD    2

 MAXIMUM HEAD CHANGE FOR EACH ITERATION:

    HEAD CHANGE   HEAD CHANGE   HEAD CHANGE   HEAD CHANGE   HEAD CHANGE
  LAYER,ROW,COL LAYER,ROW,COL LAYER,ROW,COL LAYER,ROW,COL LAYER,ROW,COL
 ----------------------------------------------------------------------
      3.279        0.6360        0.2750        0.6853E-01    0.6142E-01
  (  1,  1,  1) (  1,  1,  1) (  1,  1,  1) (  1,  4,  2) (  1,  2,  3)
     0.1330E-01    0.6949E-02    0.2591E-02    0.2091E-02    0.4487E-03
  (  1,  3,  2) (  1,  2,  3) (  1,  3,  2) (  1,  2,  3) (  1,  3,  2)


 OUTPUT CONTROL FOR STRESS PERIOD    2   TIME STEP  47
    PRINT BUDGET
    SAVE HEAD FOR ALL LAYERS
    SAVE BUDGET
 UBDSV1 SAVING "         STORAGE" ON UNIT 740 AT TIME STEP 47, STRESS PERIOD   2
 UBDSV2 SAVING "   CONSTANT HEAD" ON UNIT 740 AT TIME STEP 47, STRESS PERIOD   2
 UBDSV1 SAVING "FLOW RIGHT FACE " ON UNIT 740 AT TIME STEP 47, STRESS PERIOD   2
 UBDSV1 SAVING "FLOW FRONT FACE " ON UNIT 740 AT TIME STEP 47, STRESS PERIOD   2
 UBDSV4 SAVING "           WELLS" ON UNIT 740 AT TIME STEP 47, STRESS PERIOD   2
 UBDSV3 SAVING "              ET" ON UNIT 740 AT TIME STEP 47, STRESS PERIOD   2
 UBDSV4 SAVING " HEAD DEP BOUNDS" ON UNIT 740 AT TIME STEP 47, STRESS PERIOD   2
 UBDSV3 SAVING "        RECHARGE" ON UNIT 740 AT TIME STEP 47, STRESS PERIOD   2
 UBDSV2 SAVING "  STREAM LEAKAGE" ON UNIT 740 AT TIME STEP 47, STRESS PERIOD   2
 UBDSV2 SAVING "STREAMFLOW OUT  " ON UNIT 741 AT TIME STEP 47, STRESS PERIOD   2




 HEAD WILL BE SAVED ON UNIT  730 AT END OF TIME STEP  47, STRESS PERIOD    2
1
  VOLUMETRIC BUDGET FOR ENTIRE MODEL AT END OF TIME STEP 47 IN STRESS PERIOD   2
  ------------------------------------------------------------------------------

     CUMULATIVE VOLUMES      L**3       RATES FOR THIS TIME STEP      L**3/T
     ------------------                 ------------------------

           IN:                                      IN:
           ---                                      ---
             STORAGE = 35264720896.0000               STORAGE =           0.0000
       CONSTANT HEAD =           0.0000         CONSTANT HEAD =           0.0000
               WELLS =           0.0000                 WELLS =           0.0000
                  ET =           0.0000                    ET =           0.0000
     HEAD DEP BOUNDS =   581327680.0000       HEAD DEP BOUNDS =           0.2100
            RECHARGE =  2817710848.0000              RECHARGE =           0.0000
      STREAM LEAKAGE =206804942848.0000        STREAM LEAKAGE =          45.7767

            TOTAL IN =245468708864.0000              TOTAL IN =          45.9867

          OUT:                                     OUT:
          ----                                     ----
             STORAGE = 33818171392.0000               STORAGE =           1.0526
       CONSTANT HEAD =           0.0000         CONSTANT HEAD =           0.0000
               WELLS =157788012544.0000                 WELLS =           0.0000
                  ET = 48353374208.0000                    ET =          38.1259
     HEAD DEP BOUNDS =   709742720.0000       HEAD DEP BOUNDS =           0.2854
            RECHARGE =           0.0000              RECHARGE =           0.0000
      STREAM LEAKAGE =  4801950720.0000        STREAM LEAKAGE =           6.5221

           TOTAL OUT =245471248384.0000             TOTAL OUT =          45.9860

            IN - OUT =    -2539520.0000              IN - OUT =       7.6294E-04

 PERCENT DISCREPANCY =          -0.00     PERCENT DISCREPANCY =           0.00






          TIME SUMMARY AT END OF TIME STEP  47 IN STRESS PERIOD    2
                    SECONDS     MINUTES      HOURS       DAYS        YEARS
                    -----------------------------------------------------------
   TIME STEP LENGTH 1.08697E+08 1.81162E+06  30194.      1258.1      3.4444    
 STRESS PERIOD TIME 1.18211E+09 1.97019E+07 3.28365E+05  13682.      37.459    
         TOTAL TIME 2.75999E+09 4.59999E+07 7.66665E+05  31944.      87.459    
1
 
 SOLVING FOR HEAD 
    10 ITERATIONS FOR TIME STEP  48 IN STRESS PERIOD    2

 MAXIMUM HEAD CHANGE FOR EACH ITERATION:

    HEAD CHANGE   HEAD CHANGE   HEAD CHANGE   HEAD CHANGE   HEAD CHANGE
  LAYER,ROW,COL LAYER,ROW,COL LAYER,ROW,COL LAYER,ROW,COL LAYER,ROW,COL
 ----------------------------------------------------------------------
      2.855        0.5280        0.2266        0.4052E-01    0.3883E-01
  (  1,  1,  1) (  1,  1,  1) (  1,  1,  1) (  1,  3,  2) (  1,  2,  3)
     0.8170E-02    0.4565E-02    0.1701E-02    0.1392E-02    0.2955E-03
  (  1,  3,  2) (  1,  2,  3) (  1,  3,  2) (  1,  2,  3) (  1,  3,  2)


 OUTPUT CONTROL FOR STRESS PERIOD    2   TIME STEP  48
    PRINT BUDGET
    SAVE HEAD FOR ALL LAYERS
    SAVE BUDGET
 UBDSV1 SAVING "         STORAGE" ON UNIT 740 AT TIME STEP 48, STRESS PERIOD   2
 UBDSV2 SAVING "   CONSTANT HEAD" ON UNIT 740 AT TIME STEP 48, STRESS PERIOD   2
 UBDSV1 SAVING "FLOW RIGHT FACE " ON UNIT 740 AT TIME STEP 48, STRESS PERIOD   2
 UBDSV1 SAVING "FLOW FRONT FACE " ON UNIT 740 AT TIME STEP 48, STRESS PERIOD   2
 UBDSV4 SAVING "           WELLS" ON UNIT 740 AT TIME STEP 48, STRESS PERIOD   2
 UBDSV3 SAVING "              ET" ON UNIT 740 AT TIME STEP 48, STRESS PERIOD   2
 UBDSV4 SAVING " HEAD DEP BOUNDS" ON UNIT 740 AT TIME STEP 48, STRESS PERIOD   2
 UBDSV3 SAVING "        RECHARGE" ON UNIT 740 AT TIME STEP 48, STRESS PERIOD   2
 UBDSV2 SAVING "  STREAM LEAKAGE" ON UNIT 740 AT TIME STEP 48, STRESS PERIOD   2
 UBDSV2 SAVING "STREAMFLOW OUT  " ON UNIT 741 AT TIME STEP 48, STRESS PERIOD   2




 HEAD WILL BE SAVED ON UNIT  730 AT END OF TIME STEP  48, STRESS PERIOD    2
1
  VOLUMETRIC BUDGET FOR ENTIRE MODEL AT END OF TIME STEP 48 IN STRESS PERIOD   2
  ------------------------------------------------------------------------------

     CUMULATIVE VOLUMES      L**3       RATES FOR THIS TIME STEP      L**3/T
     ------------------                 ------------------------

           IN:                                      IN:
           ---                                      ---
             STORAGE = 35264720896.0000               STORAGE =           0.0000
       CONSTANT HEAD =           0.0000         CONSTANT HEAD =           0.0000
               WELLS =           0.0000                 WELLS =           0.0000
                  ET =           0.0000                    ET =           0.0000
     HEAD DEP BOUNDS =   606441984.0000       HEAD DEP BOUNDS =           0.2100
            RECHARGE =  2817710848.0000              RECHARGE =           0.0000
      STREAM LEAKAGE =212257947648.0000        STREAM LEAKAGE =          45.6063

            TOTAL IN =250946813952.0000              TOTAL IN =          45.8163

          OUT:                                     OUT:
          ----                                     ----
             STORAGE = 33891098624.0000               STORAGE =           0.6099
       CONSTANT HEAD =           0.0000         CONSTANT HEAD =           0.0000
               WELLS =157788012544.0000                 WELLS =           0.0000
                  ET = 52940574720.0000                    ET =          38.3651
     HEAD DEP BOUNDS =   743871872.0000       HEAD DEP BOUNDS =           0.2854
            RECHARGE =           0.0000              RECHARGE =           0.0000
      STREAM LEAKAGE =  5585749504.0000        STREAM LEAKAGE =           6.5553

           TOTAL OUT =250949287936.0000             TOTAL OUT =          45.8158

            IN - OUT =    -2473984.0000              IN - OUT =       5.4169E-04

 PERCENT DISCREPANCY =          -0.00     PERCENT DISCREPANCY =           0.00






          TIME SUMMARY AT END OF TIME STEP  48 IN STRESS PERIOD    2
                    SECONDS     MINUTES      HOURS       DAYS        YEARS
                    -----------------------------------------------------------
   TIME STEP LENGTH 1.19567E+08 1.99278E+06  33213.      1383.9      3.7889    
 STRESS PERIOD TIME 1.30168E+09 2.16947E+07 3.61578E+05  15066.      41.248    
         TOTAL TIME 2.87956E+09 4.79927E+07 7.99878E+05  33328.      91.248    
1
 
 SOLVING FOR HEAD 
     9 ITERATIONS FOR TIME STEP  49 IN STRESS PERIOD    2

 MAXIMUM HEAD CHANGE FOR EACH ITERATION:

    HEAD CHANGE   HEAD CHANGE   HEAD CHANGE   HEAD CHANGE   HEAD CHANGE
  LAYER,ROW,COL LAYER,ROW,COL LAYER,ROW,COL LAYER,ROW,COL LAYER,ROW,COL
 ----------------------------------------------------------------------
      2.335        0.4135        0.1797        0.2572E-01    0.2596E-01
  (  1,  1,  1) (  1,  1,  1) (  1,  1,  1) (  1,  3,  2) (  1,  2,  3)
     0.5311E-02    0.2975E-02    0.1098E-02    0.9007E-03
  (  1,  3,  2) (  1,  2,  3) (  1,  3,  2) (  1,  2,  3)


 OUTPUT CONTROL FOR STRESS PERIOD    2   TIME STEP  49
    PRINT BUDGET
    SAVE HEAD FOR ALL LAYERS
    SAVE BUDGET
 UBDSV1 SAVING "         STORAGE" ON UNIT 740 AT TIME STEP 49, STRESS PERIOD   2
 UBDSV2 SAVING "   CONSTANT HEAD" ON UNIT 740 AT TIME STEP 49, STRESS PERIOD   2
 UBDSV1 SAVING "FLOW RIGHT FACE " ON UNIT 740 AT TIME STEP 49, STRESS PERIOD   2
 UBDSV1 SAVING "FLOW FRONT FACE " ON UNIT 740 AT TIME STEP 49, STRESS PERIOD   2
 UBDSV4 SAVING "           WELLS" ON UNIT 740 AT TIME STEP 49, STRESS PERIOD   2
 UBDSV3 SAVING "              ET" ON UNIT 740 AT TIME STEP 49, STRESS PERIOD   2
 UBDSV4 SAVING " HEAD DEP BOUNDS" ON UNIT 740 AT TIME STEP 49, STRESS PERIOD   2
 UBDSV3 SAVING "        RECHARGE" ON UNIT 740 AT TIME STEP 49, STRESS PERIOD   2
 UBDSV2 SAVING "  STREAM LEAKAGE" ON UNIT 740 AT TIME STEP 49, STRESS PERIOD   2
 UBDSV2 SAVING "STREAMFLOW OUT  " ON UNIT 741 AT TIME STEP 49, STRESS PERIOD   2




 HEAD WILL BE SAVED ON UNIT  730 AT END OF TIME STEP  49, STRESS PERIOD    2
1
  VOLUMETRIC BUDGET FOR ENTIRE MODEL AT END OF TIME STEP 49 IN STRESS PERIOD   2
  ------------------------------------------------------------------------------

     CUMULATIVE VOLUMES      L**3       RATES FOR THIS TIME STEP      L**3/T
     ------------------                 ------------------------

           IN:                                      IN:
           ---                                      ---
             STORAGE = 35264720896.0000               STORAGE =           0.0000
       CONSTANT HEAD =           0.0000         CONSTANT HEAD =           0.0000
               WELLS =           0.0000                 WELLS =           0.0000
                  ET =           0.0000                    ET =           0.0000
     HEAD DEP BOUNDS =   634067520.0000       HEAD DEP BOUNDS =           0.2100
            RECHARGE =  2817710848.0000              RECHARGE =           0.0000
      STREAM LEAKAGE =218243678208.0000        STREAM LEAKAGE =          45.5107

            TOTAL IN =256960184320.0000              TOTAL IN =          45.7207

          OUT:                                     OUT:
          ----                                     ----
             STORAGE = 33939070976.0000               STORAGE =           0.3647
       CONSTANT HEAD =           0.0000         CONSTANT HEAD =           0.0000
               WELLS =157788012544.0000                 WELLS =           0.0000
                  ET = 58004025344.0000                    ET =          38.4984
     HEAD DEP BOUNDS =   781419392.0000       HEAD DEP BOUNDS =           0.2855
            RECHARGE =           0.0000              RECHARGE =           0.0000
      STREAM LEAKAGE =  6450213888.0000        STREAM LEAKAGE =           6.5727

           TOTAL OUT =256962740224.0000             TOTAL OUT =          45.7213

            IN - OUT =    -2555904.0000              IN - OUT =      -5.9509E-04

 PERCENT DISCREPANCY =          -0.00     PERCENT DISCREPANCY =          -0.00






          TIME SUMMARY AT END OF TIME STEP  49 IN STRESS PERIOD    2
                    SECONDS     MINUTES      HOURS       DAYS        YEARS
                    -----------------------------------------------------------
   TIME STEP LENGTH 1.31524E+08 2.19206E+06  36534.      1522.3      4.1677    
 STRESS PERIOD TIME 1.43320E+09 2.38867E+07 3.98112E+05  16588.      45.415    
         TOTAL TIME 3.01108E+09 5.01847E+07 8.36412E+05  34851.      95.415    
1
 
 SOLVING FOR HEAD 
     8 ITERATIONS FOR TIME STEP  50 IN STRESS PERIOD    2

 MAXIMUM HEAD CHANGE FOR EACH ITERATION:

    HEAD CHANGE   HEAD CHANGE   HEAD CHANGE   HEAD CHANGE   HEAD CHANGE
  LAYER,ROW,COL LAYER,ROW,COL LAYER,ROW,COL LAYER,ROW,COL LAYER,ROW,COL
 ----------------------------------------------------------------------
      1.808        0.3079        0.1377        0.1845E-01    0.1780E-01
  (  1,  1,  1) (  1,  1,  1) (  1,  1,  1) (  1,  1,  1) (  1,  2,  3)
     0.3549E-02    0.2015E-02    0.7369E-03
  (  1,  3,  2) (  1,  2,  3) (  1,  3,  2)


 OUTPUT CONTROL FOR STRESS PERIOD    2   TIME STEP  50
    PRINT BUDGET
    SAVE HEAD FOR ALL LAYERS
    SAVE BUDGET
 UBDSV1 SAVING "         STORAGE" ON UNIT 740 AT TIME STEP 50, STRESS PERIOD   2
 UBDSV2 SAVING "   CONSTANT HEAD" ON UNIT 740 AT TIME STEP 50, STRESS PERIOD   2
 UBDSV1 SAVING "FLOW RIGHT FACE " ON UNIT 740 AT TIME STEP 50, STRESS PERIOD   2
 UBDSV1 SAVING "FLOW FRONT FACE " ON UNIT 740 AT TIME STEP 50, STRESS PERIOD   2
 UBDSV4 SAVING "           WELLS" ON UNIT 740 AT TIME STEP 50, STRESS PERIOD   2
 UBDSV3 SAVING "              ET" ON UNIT 740 AT TIME STEP 50, STRESS PERIOD   2
 UBDSV4 SAVING " HEAD DEP BOUNDS" ON UNIT 740 AT TIME STEP 50, STRESS PERIOD   2
 UBDSV3 SAVING "        RECHARGE" ON UNIT 740 AT TIME STEP 50, STRESS PERIOD   2
 UBDSV2 SAVING "  STREAM LEAKAGE" ON UNIT 740 AT TIME STEP 50, STRESS PERIOD   2
 UBDSV2 SAVING "STREAMFLOW OUT  " ON UNIT 741 AT TIME STEP 50, STRESS PERIOD   2




 HEAD WILL BE SAVED ON UNIT  730 AT END OF TIME STEP  50, STRESS PERIOD    2
1
  VOLUMETRIC BUDGET FOR ENTIRE MODEL AT END OF TIME STEP 50 IN STRESS PERIOD   2
  ------------------------------------------------------------------------------

     CUMULATIVE VOLUMES      L**3       RATES FOR THIS TIME STEP      L**3/T
     ------------------                 ------------------------

           IN:                                      IN:
           ---                                      ---
             STORAGE = 35264720896.0000               STORAGE =       7.6294E-06
       CONSTANT HEAD =           0.0000         CONSTANT HEAD =           0.0000
               WELLS =           0.0000                 WELLS =           0.0000
                  ET =           0.0000                    ET =           0.0000
     HEAD DEP BOUNDS =   664455616.0000       HEAD DEP BOUNDS =           0.2100
            RECHARGE =  2817710848.0000              RECHARGE =           0.0000
      STREAM LEAKAGE =224820445184.0000        STREAM LEAKAGE =          45.4585

            TOTAL IN =263567343616.0000              TOTAL IN =          45.6686

          OUT:                                     OUT:
          ----                                     ----
             STORAGE = 33971333120.0000               STORAGE =           0.2230
       CONSTANT HEAD =           0.0000         CONSTANT HEAD =           0.0000
               WELLS =157788012544.0000                 WELLS =           0.0000
                  ET = 63585095680.0000                    ET =          38.5763
     HEAD DEP BOUNDS =   822724992.0000       HEAD DEP BOUNDS =           0.2855
            RECHARGE =           0.0000              RECHARGE =           0.0000
      STREAM LEAKAGE =  7402472448.0000        STREAM LEAKAGE =           6.5820

           TOTAL OUT =263569637376.0000             TOTAL OUT =          45.6668

            IN - OUT =    -2293760.0000              IN - OUT =       1.7548E-03

 PERCENT DISCREPANCY =          -0.00     PERCENT DISCREPANCY =           0.00






          TIME SUMMARY AT END OF TIME STEP  50 IN STRESS PERIOD    2
                    SECONDS     MINUTES      HOURS       DAYS        YEARS
                    -----------------------------------------------------------
   TIME STEP LENGTH 1.44676E+08 2.41127E+06  40188.      1674.5      4.5845    
 STRESS PERIOD TIME 1.57788E+09 2.62980E+07 4.38300E+05  18263.      50.000    
         TOTAL TIME 3.15576E+09 5.25960E+07 8.76600E+05  36525.     100.000    
1
